
*** ChampSim Multicore Out-of-Order Simulator ***

Warmup Instructions: 1000000
Simulation Instructions: 10000000
Number of CPUs: 1
LLC sets: 2048
LLC ways: 16
Off-chip DRAM Size: 4096 MB Channels: 1 Width: 64-bit Data Rate: 1600 MT/s

CPU 0 runs /Volumes/HFS+/project/champsim/ChampSim-master/CRC2_trace/bwaves_183B.trace.gz
CPU 0 Bimodal branch predictor
L2C Signature Path Prefetcher
gunzip: can't stat: /Volumes/HFS+/project/champsim/ChampSim-master/CRC2_trace/bwaves_183B.trace.gz (/Volumes/HFS+/project/champsim/ChampSim-master/CRC2_trace/bwaves_183B.trace.gz.gz): No such file or directory
*** Reached end of trace for Core: 0 Repeating trace: /Volumes/HFS+/project/champsim/ChampSim-master/CRC2_trace/bwaves_183B.trace.gz
gunzip: can't stat: /Volumes/HFS+/project/champsim/ChampSim-master/CRC2_trace/bwaves_183B.trace.gz (/Volumes/HFS+/project/champsim/ChampSim-master/CRC2_trace/bwaves_183B.trace.gz.gz): No such file or directory
*** Reached end of trace for Core: 0 Repeating trace: /Volumes/HFS+/project/champsim/ChampSim-master/CRC2_trace/bwaves_183B.trace.gz
gunzip: can't stat: /Volumes/HFS+/project/champsim/ChampSim-master/CRC2_trace/bwaves_183B.trace.gz (/Volumes/HFS+/project/champsim/ChampSim-master/CRC2_trace/bwaves_183B.trace.gz.gz): No such file or directory
*** Reached end of trace for Core: 0 Repeating trace: /Volumes/HFS+/project/champsim/ChampSim-master/CRC2_trace/bwaves_183B.trace.gz
gunzip: can't stat: /Volumes/HFS+/project/champsim/ChampSim-master/CRC2_trace/bwaves_183B.trace.gz (/Volumes/HFS+/project/champsim/ChampSim-master/CRC2_trace/bwaves_183B.trace.gz.gz): No such file or directory
*** Reached end of trace for Core: 0 Repeating trace: /Volumes/HFS+/project/champsim/ChampSim-master/CRC2_trace/bwaves_183B.trace.gz
gunzip: can't stat: /Volumes/HFS+/project/champsim/ChampSim-master/CRC2_trace/bwaves_183B.trace.gz (/Volumes/HFS+/project/champsim/ChampSim-master/CRC2_trace/bwaves_183B.trace.gz.gz): No such file or directory
*** Reached end of trace for Core: 0 Repeating trace: /Volumes/HFS+/project/champsim/ChampSim-master/CRC2_trace/bwaves_183B.trace.gz
gunzip: can't stat: /Volumes/HFS+/project/champsim/ChampSim-master/CRC2_trace/bwaves_183B.trace.gz (/Volumes/HFS+/project/champsim/ChampSim-master/CRC2_trace/bwaves_183B.trace.gz.gz): No such file or directory
*** Reached end of trace for Core: 0 Repeating trace: /Volumes/HFS+/project/champsim/ChampSim-master/CRC2_trace/bwaves_183B.trace.gz
gunzip: can't stat: /Volumes/HFS+/project/champsim/ChampSim-master/CRC2_trace/bwaves_183B.trace.gz (/Volumes/HFS+/project/champsim/ChampSim-master/CRC2_trace/bwaves_183B.trace.gz.gz): No such file or directory
*** Reached end of trace for Core: 0 Repeating trace: /Volumes/HFS+/project/champsim/ChampSim-master/CRC2_trace/bwaves_183B.trace.gz
gunzip: can't stat: /Volumes/HFS+/project/champsim/ChampSim-master/CRC2_trace/bwaves_183B.trace.gz (/Volumes/HFS+/project/champsim/ChampSim-master/CRC2_trace/bwaves_183B.trace.gz.gz): No such file or directory
*** Reached end of trace for Core: 0 Repeating trace: /Volumes/HFS+/project/champsim/ChampSim-master/CRC2_trace/bwaves_183B.trace.gz
gunzip: can't stat: /Volumes/HFS+/project/champsim/ChampSim-master/CRC2_trace/bwaves_183B.trace.gz (/Volumes/HFS+/project/champsim/ChampSim-master/CRC2_trace/bwaves_183B.trace.gz.gz): No such file or directory
*** Reached end of trace for Core: 0 Repeating trace: /Volumes/HFS+/project/champsim/ChampSim-master/CRC2_trace/bwaves_183B.trace.gz
gunzip: can't stat: /Volumes/HFS+/project/champsim/ChampSim-master/CRC2_trace/bwaves_183B.trace.gz (/Volumes/HFS+/project/champsim/ChampSim-master/CRC2_trace/bwaves_183B.trace.gz.gz): No such file or directory
*** Reached end of trace for Core: 0 Repeating trace: /Volumes/HFS+/project/champsim/ChampSim-master/CRC2_trace/bwaves_183B.trace.gz
gunzip: can't stat: /Volumes/HFS+/project/champsim/ChampSim-master/CRC2_trace/bwaves_183B.trace.gz (/Volumes/HFS+/project/champsim/ChampSim-master/CRC2_trace/bwaves_183B.trace.gz.gz): No such file or directory
*** Reached end of trace for Core: 0 Repeating trace: /Volumes/HFS+/project/champsim/ChampSim-master/CRC2_trace/bwaves_183B.trace.gz
gunzip: can't stat: /Volumes/HFS+/project/champsim/ChampSim-master/CRC2_trace/bwaves_183B.trace.gz (/Volumes/HFS+/project/champsim/ChampSim-master/CRC2_trace/bwaves_183B.trace.gz.gz): No such file or directory
*** Reached end of trace for Core: 0 Repeating trace: /Volumes/HFS+/project/champsim/ChampSim-master/CRC2_trace/bwaves_183B.trace.gz
gunzip: can't stat: /Volumes/HFS+/project/champsim/ChampSim-master/CRC2_trace/bwaves_183B.trace.gz (/Volumes/HFS+/project/champsim/ChampSim-master/CRC2_trace/bwaves_183B.trace.gz.gz): No such file or directory
*** Reached end of trace for Core: 0 Repeating trace: /Volumes/HFS+/project/champsim/ChampSim-master/CRC2_trace/bwaves_183B.trace.gz
gunzip: can't stat: /Volumes/HFS+/project/champsim/ChampSim-master/CRC2_trace/bwaves_183B.trace.gz (/Volumes/HFS+/project/champsim/ChampSim-master/CRC2_trace/bwaves_183B.trace.gz.gz): No such file or directory
*** Reached end of trace for Core: 0 Repeating trace: /Volumes/HFS+/project/champsim/ChampSim-master/CRC2_trace/bwaves_183B.trace.gz
gunzip: can't stat: /Volumes/HFS+/project/champsim/ChampSim-master/CRC2_trace/bwaves_183B.trace.gz (/Volumes/HFS+/project/champsim/ChampSim-master/CRC2_trace/bwaves_183B.trace.gz.gz): No such file or directory
*** Reached end of trace for Core: 0 Repeating trace: /Volumes/HFS+/project/champsim/ChampSim-master/CRC2_trace/bwaves_183B.trace.gz
gunzip: can't stat: /Volumes/HFS+/project/champsim/ChampSim-master/CRC2_trace/bwaves_183B.trace.gz (/Volumes/HFS+/project/champsim/ChampSim-master/CRC2_trace/bwaves_183B.trace.gz.gz): No such file or directory
*** Reached end of trace for Core: 0 Repeating trace: /Volumes/HFS+/project/champsim/ChampSim-master/CRC2_trace/bwaves_183B.trace.gz
gunzip: can't stat: /Volumes/HFS+/project/champsim/ChampSim-master/CRC2_trace/bwaves_183B.trace.gz (/Volumes/HFS+/project/champsim/ChampSim-master/CRC2_trace/bwaves_183B.trace.gz.gz): No such file or directory
*** Reached end of trace for Core: 0 Repeating trace: /Volumes/HFS+/project/champsim/ChampSim-master/CRC2_trace/bwaves_183B.trace.gz
gunzip: can't stat: /Volumes/HFS+/project/champsim/ChampSim-master/CRC2_trace/bwaves_183B.trace.gz (/Volumes/HFS+/project/champsim/ChampSim-master/CRC2_trace/bwaves_183B.trace.gz.gz): No such file or directory
*** Reached end of trace for Core: 0 Repeating trace: /Volumes/HFS+/project/champsim/ChampSim-master/CRC2_trace/bwaves_183B.trace.gz
gunzip: can't stat: /Volumes/HFS+/project/champsim/ChampSim-master/CRC2_trace/bwaves_183B.trace.gz (/Volumes/HFS+/project/champsim/ChampSim-master/CRC2_trace/bwaves_183B.trace.gz.gz): No such file or directory
*** Reached end of trace for Core: 0 Repeating trace: /Volumes/HFS+/project/champsim/ChampSim-master/CRC2_trace/bwaves_183B.trace.gz
gunzip: can't stat: /Volumes/HFS+/project/champsim/ChampSim-master/CRC2_trace/bwaves_183B.trace.gz (/Volumes/HFS+/project/champsim/ChampSim-master/CRC2_trace/bwaves_183B.trace.gz.gz): No such file or directory
*** Reached end of trace for Core: 0 Repeating trace: /Volumes/HFS+/project/champsim/ChampSim-master/CRC2_trace/bwaves_183B.trace.gz
gunzip: can't stat: /Volumes/HFS+/project/champsim/ChampSim-master/CRC2_trace/bwaves_183B.trace.gz (/Volumes/HFS+/project/champsim/ChampSim-master/CRC2_trace/bwaves_183B.trace.gz.gz): No such file or directory
*** Reached end of trace for Core: 0 Repeating trace: /Volumes/HFS+/project/champsim/ChampSim-master/CRC2_trace/bwaves_183B.trace.gz
gunzip: can't stat: /Volumes/HFS+/project/champsim/ChampSim-master/CRC2_trace/bwaves_183B.trace.gz (/Volumes/HFS+/project/champsim/ChampSim-master/CRC2_trace/bwaves_183B.trace.gz.gz): No such file or directory
*** Reached end of trace for Core: 0 Repeating trace: /Volumes/HFS+/project/champsim/ChampSim-master/CRC2_trace/bwaves_183B.trace.gz
gunzip: can't stat: /Volumes/HFS+/project/champsim/ChampSim-master/CRC2_trace/bwaves_183B.trace.gz (/Volumes/HFS+/project/champsim/ChampSim-master/CRC2_trace/bwaves_183B.trace.gz.gz): No such file or directory
*** Reached end of trace for Core: 0 Repeating trace: /Volumes/HFS+/project/champsim/ChampSim-master/CRC2_trace/bwaves_183B.trace.gz
gunzip: can't stat: /Volumes/HFS+/project/champsim/ChampSim-master/CRC2_trace/bwaves_183B.trace.gz (/Volumes/HFS+/project/champsim/ChampSim-master/CRC2_trace/bwaves_183B.trace.gz.gz): No such file or directory
*** Reached end of trace for Core: 0 Repeating trace: /Volumes/HFS+/project/champsim/ChampSim-master/CRC2_trace/bwaves_183B.trace.gz
gunzip: can't stat: /Volumes/HFS+/project/champsim/ChampSim-master/CRC2_trace/bwaves_183B.trace.gz (/Volumes/HFS+/project/champsim/ChampSim-master/CRC2_trace/bwaves_183B.trace.gz.gz): No such file or directory
*** Reached end of trace for Core: 0 Repeating trace: /Volumes/HFS+/project/champsim/ChampSim-master/CRC2_trace/bwaves_183B.trace.gz
gunzip: can't stat: /Volumes/HFS+/project/champsim/ChampSim-master/CRC2_trace/bwaves_183B.trace.gz (/Volumes/HFS+/project/champsim/ChampSim-master/CRC2_trace/bwaves_183B.trace.gz.gz): No such file or directory
*** Reached end of trace for Core: 0 Repeating trace: /Volumes/HFS+/project/champsim/ChampSim-master/CRC2_trace/bwaves_183B.trace.gz
gunzip: can't stat: /Volumes/HFS+/project/champsim/ChampSim-master/CRC2_trace/bwaves_183B.trace.gz (/Volumes/HFS+/project/champsim/ChampSim-master/CRC2_trace/bwaves_183B.trace.gz.gz): No such file or directory
*** Reached end of trace for Core: 0 Repeating trace: /Volumes/HFS+/project/champsim/ChampSim-master/CRC2_trace/bwaves_183B.trace.gz
gunzip: can't stat: /Volumes/HFS+/project/champsim/ChampSim-master/CRC2_trace/bwaves_183B.trace.gz (/Volumes/HFS+/project/champsim/ChampSim-master/CRC2_trace/bwaves_183B.trace.gz.gz): No such file or directory
*** Reached end of trace for Core: 0 Repeating trace: /Volumes/HFS+/project/champsim/ChampSim-master/CRC2_trace/bwaves_183B.trace.gz
gunzip: can't stat: /Volumes/HFS+/project/champsim/ChampSim-master/CRC2_trace/bwaves_183B.trace.gz (/Volumes/HFS+/project/champsim/ChampSim-master/CRC2_trace/bwaves_183B.trace.gz.gz): No such file or directory
*** Reached end of trace for Core: 0 Repeating trace: /Volumes/HFS+/project/champsim/ChampSim-master/CRC2_trace/bwaves_183B.trace.gz
gunzip: can't stat: /Volumes/HFS+/project/champsim/ChampSim-master/CRC2_trace/bwaves_183B.trace.gz (/Volumes/HFS+/project/champsim/ChampSim-master/CRC2_trace/bwaves_183B.trace.gz.gz): No such file or directory
*** Reached end of trace for Core: 0 Repeating trace: /Volumes/HFS+/project/champsim/ChampSim-master/CRC2_trace/bwaves_183B.trace.gz
gunzip: can't stat: /Volumes/HFS+/project/champsim/ChampSim-master/CRC2_trace/bwaves_183B.trace.gz (/Volumes/HFS+/project/champsim/ChampSim-master/CRC2_trace/bwaves_183B.trace.gz.gz): No such file or directory
*** Reached end of trace for Core: 0 Repeating trace: /Volumes/HFS+/project/champsim/ChampSim-master/CRC2_trace/bwaves_183B.trace.gz
gunzip: can't stat: /Volumes/HFS+/project/champsim/ChampSim-master/CRC2_trace/bwaves_183B.trace.gz (/Volumes/HFS+/project/champsim/ChampSim-master/CRC2_trace/bwaves_183B.trace.gz.gz): No such file or directory
*** Reached end of trace for Core: 0 Repeating trace: /Volumes/HFS+/project/champsim/ChampSim-master/CRC2_trace/bwaves_183B.trace.gz
gunzip: can't stat: /Volumes/HFS+/project/champsim/ChampSim-master/CRC2_trace/bwaves_183B.trace.gz (/Volumes/HFS+/project/champsim/ChampSim-master/CRC2_trace/bwaves_183B.trace.gz.gz): No such file or directory
*** Reached end of trace for Core: 0 Repeating trace: /Volumes/HFS+/project/champsim/ChampSim-master/CRC2_trace/bwaves_183B.trace.gz
gunzip: can't stat: /Volumes/HFS+/project/champsim/ChampSim-master/CRC2_trace/bwaves_183B.trace.gz (/Volumes/HFS+/project/champsim/ChampSim-master/CRC2_trace/bwaves_183B.trace.gz.gz): No such file or directory
*** Reached end of trace for Core: 0 Repeating trace: /Volumes/HFS+/project/champsim/ChampSim-master/CRC2_trace/bwaves_183B.trace.gz
gunzip: can't stat: /Volumes/HFS+/project/champsim/ChampSim-master/CRC2_trace/bwaves_183B.trace.gz (/Volumes/HFS+/project/champsim/ChampSim-master/CRC2_trace/bwaves_183B.trace.gz.gz): No such file or directory
*** Reached end of trace for Core: 0 Repeating trace: /Volumes/HFS+/project/champsim/ChampSim-master/CRC2_trace/bwaves_183B.trace.gz
gunzip: can't stat: /Volumes/HFS+/project/champsim/ChampSim-master/CRC2_trace/bwaves_183B.trace.gz (/Volumes/HFS+/project/champsim/ChampSim-master/CRC2_trace/bwaves_183B.trace.gz.gz): No such file or directory
*** Reached end of trace for Core: 0 Repeating trace: /Volumes/HFS+/project/champsim/ChampSim-master/CRC2_trace/bwaves_183B.trace.gz
gunzip: can't stat: /Volumes/HFS+/project/champsim/ChampSim-master/CRC2_trace/bwaves_183B.trace.gz (/Volumes/HFS+/project/champsim/ChampSim-master/CRC2_trace/bwaves_183B.trace.gz.gz): No such file or directory
*** Reached end of trace for Core: 0 Repeating trace: /Volumes/HFS+/project/champsim/ChampSim-master/CRC2_trace/bwaves_183B.trace.gz
gunzip: can't stat: /Volumes/HFS+/project/champsim/ChampSim-master/CRC2_trace/bwaves_183B.trace.gz (/Volumes/HFS+/project/champsim/ChampSim-master/CRC2_trace/bwaves_183B.trace.gz.gz): No such file or directory
*** Reached end of trace for Core: 0 Repeating trace: /Volumes/HFS+/project/champsim/ChampSim-master/CRC2_trace/bwaves_183B.trace.gz
gunzip: can't stat: /Volumes/HFS+/project/champsim/ChampSim-master/CRC2_trace/bwaves_183B.trace.gz (/Volumes/HFS+/project/champsim/ChampSim-master/CRC2_trace/bwaves_183B.trace.gz.gz): No such file or directory
*** Reached end of trace for Core: 0 Repeating trace: /Volumes/HFS+/project/champsim/ChampSim-master/CRC2_trace/bwaves_183B.trace.gz
gunzip: can't stat: /Volumes/HFS+/project/champsim/ChampSim-master/CRC2_trace/bwaves_183B.trace.gz (/Volumes/HFS+/project/champsim/ChampSim-master/CRC2_trace/bwaves_183B.trace.gz.gz): No such file or directory
*** Reached end of trace for Core: 0 Repeating trace: /Volumes/HFS+/project/champsim/ChampSim-master/CRC2_trace/bwaves_183B.trace.gz
gunzip: can't stat: /Volumes/HFS+/project/champsim/ChampSim-master/CRC2_trace/bwaves_183B.trace.gz (/Volumes/HFS+/project/champsim/ChampSim-master/CRC2_trace/bwaves_183B.trace.gz.gz): No such file or directory
*** Reached end of trace for Core: 0 Repeating trace: /Volumes/HFS+/project/champsim/ChampSim-master/CRC2_trace/bwaves_183B.trace.gz
gunzip: can't stat: /Volumes/HFS+/project/champsim/ChampSim-master/CRC2_trace/bwaves_183B.trace.gz (/Volumes/HFS+/project/champsim/ChampSim-master/CRC2_trace/bwaves_183B.trace.gz.gz): No such file or directory
*** Reached end of trace for Core: 0 Repeating trace: /Volumes/HFS+/project/champsim/ChampSim-master/CRC2_trace/bwaves_183B.trace.gz
gunzip: can't stat: /Volumes/HFS+/project/champsim/ChampSim-master/CRC2_trace/bwaves_183B.trace.gz (/Volumes/HFS+/project/champsim/ChampSim-master/CRC2_trace/bwaves_183B.trace.gz.gz): No such file or directory
*** Reached end of trace for Core: 0 Repeating trace: /Volumes/HFS+/project/champsim/ChampSim-master/CRC2_trace/bwaves_183B.trace.gz
gunzip: can't stat: /Volumes/HFS+/project/champsim/ChampSim-master/CRC2_trace/bwaves_183B.trace.gz (/Volumes/HFS+/project/champsim/ChampSim-master/CRC2_trace/bwaves_183B.trace.gz.gz): No such file or directory
*** Reached end of trace for Core: 0 Repeating trace: /Volumes/HFS+/project/champsim/ChampSim-master/CRC2_trace/bwaves_183B.trace.gz
gunzip: can't stat: /Volumes/HFS+/project/champsim/ChampSim-master/CRC2_trace/bwaves_183B.trace.gz (/Volumes/HFS+/project/champsim/ChampSim-master/CRC2_trace/bwaves_183B.trace.gz.gz): No such file or directory
*** Reached end of trace for Core: 0 Repeating trace: /Volumes/HFS+/project/champsim/ChampSim-master/CRC2_trace/bwaves_183B.trace.gz
gunzip: can't stat: /Volumes/HFS+/project/champsim/ChampSim-master/CRC2_trace/bwaves_183B.trace.gz (/Volumes/HFS+/project/champsim/ChampSim-master/CRC2_trace/bwaves_183B.trace.gz.gz): No such file or directory
*** Reached end of trace for Core: 0 Repeating trace: /Volumes/HFS+/project/champsim/ChampSim-master/CRC2_trace/bwaves_183B.trace.gz
gunzip: can't stat: /Volumes/HFS+/project/champsim/ChampSim-master/CRC2_trace/bwaves_183B.trace.gz (/Volumes/HFS+/project/champsim/ChampSim-master/CRC2_trace/bwaves_183B.trace.gz.gz): No such file or directory
*** Reached end of trace for Core: 0 Repeating trace: /Volumes/HFS+/project/champsim/ChampSim-master/CRC2_trace/bwaves_183B.trace.gz
gunzip: can't stat: /Volumes/HFS+/project/champsim/ChampSim-master/CRC2_trace/bwaves_183B.trace.gz (/Volumes/HFS+/project/champsim/ChampSim-master/CRC2_trace/bwaves_183B.trace.gz.gz): No such file or directory
*** Reached end of trace for Core: 0 Repeating trace: /Volumes/HFS+/project/champsim/ChampSim-master/CRC2_trace/bwaves_183B.trace.gz
gunzip: can't stat: /Volumes/HFS+/project/champsim/ChampSim-master/CRC2_trace/bwaves_183B.trace.gz (/Volumes/HFS+/project/champsim/ChampSim-master/CRC2_trace/bwaves_183B.trace.gz.gz): No such file or directory
*** Reached end of trace for Core: 0 Repeating trace: /Volumes/HFS+/project/champsim/ChampSim-master/CRC2_trace/bwaves_183B.trace.gz
gunzip: can't stat: /Volumes/HFS+/project/champsim/ChampSim-master/CRC2_trace/bwaves_183B.trace.gz (/Volumes/HFS+/project/champsim/ChampSim-master/CRC2_trace/bwaves_183B.trace.gz.gz): No such file or directory
*** Reached end of trace for Core: 0 Repeating trace: /Volumes/HFS+/project/champsim/ChampSim-master/CRC2_trace/bwaves_183B.trace.gz
gunzip: can't stat: /Volumes/HFS+/project/champsim/ChampSim-master/CRC2_trace/bwaves_183B.trace.gz (/Volumes/HFS+/project/champsim/ChampSim-master/CRC2_trace/bwaves_183B.trace.gz.gz): No such file or directory
*** Reached end of trace for Core: 0 Repeating trace: /Volumes/HFS+/project/champsim/ChampSim-master/CRC2_trace/bwaves_183B.trace.gz
gunzip: can't stat: /Volumes/HFS+/project/champsim/ChampSim-master/CRC2_trace/bwaves_183B.trace.gz (/Volumes/HFS+/project/champsim/ChampSim-master/CRC2_trace/bwaves_183B.trace.gz.gz): No such file or directory
*** Reached end of trace for Core: 0 Repeating trace: /Volumes/HFS+/project/champsim/ChampSim-master/CRC2_trace/bwaves_183B.trace.gz
gunzip: can't stat: /Volumes/HFS+/project/champsim/ChampSim-master/CRC2_trace/bwaves_183B.trace.gz (/Volumes/HFS+/project/champsim/ChampSim-master/CRC2_trace/bwaves_183B.trace.gz.gz): No such file or directory
*** Reached end of trace for Core: 0 Repeating trace: /Volumes/HFS+/project/champsim/ChampSim-master/CRC2_trace/bwaves_183B.trace.gz
gunzip: can't stat: /Volumes/HFS+/project/champsim/ChampSim-master/CRC2_trace/bwaves_183B.trace.gz (/Volumes/HFS+/project/champsim/ChampSim-master/CRC2_trace/bwaves_183B.trace.gz.gz): No such file or directory
*** Reached end of trace for Core: 0 Repeating trace: /Volumes/HFS+/project/champsim/ChampSim-master/CRC2_trace/bwaves_183B.trace.gz
gunzip: can't stat: /Volumes/HFS+/project/champsim/ChampSim-master/CRC2_trace/bwaves_183B.trace.gz (/Volumes/HFS+/project/champsim/ChampSim-master/CRC2_trace/bwaves_183B.trace.gz.gz): No such file or directory
*** Reached end of trace for Core: 0 Repeating trace: /Volumes/HFS+/project/champsim/ChampSim-master/CRC2_trace/bwaves_183B.trace.gz
gunzip: can't stat: /Volumes/HFS+/project/champsim/ChampSim-master/CRC2_trace/bwaves_183B.trace.gz (/Volumes/HFS+/project/champsim/ChampSim-master/CRC2_trace/bwaves_183B.trace.gz.gz): No such file or directory
*** Reached end of trace for Core: 0 Repeating trace: /Volumes/HFS+/project/champsim/ChampSim-master/CRC2_trace/bwaves_183B.trace.gz
gunzip: can't stat: /Volumes/HFS+/project/champsim/ChampSim-master/CRC2_trace/bwaves_183B.trace.gz (/Volumes/HFS+/project/champsim/ChampSim-master/CRC2_trace/bwaves_183B.trace.gz.gz): No such file or directory
*** Reached end of trace for Core: 0 Repeating trace: /Volumes/HFS+/project/champsim/ChampSim-master/CRC2_trace/bwaves_183B.trace.gz
gunzip: can't stat: /Volumes/HFS+/project/champsim/ChampSim-master/CRC2_trace/bwaves_183B.trace.gz (/Volumes/HFS+/project/champsim/ChampSim-master/CRC2_trace/bwaves_183B.trace.gz.gz): No such file or directory
*** Reached end of trace for Core: 0 Repeating trace: /Volumes/HFS+/project/champsim/ChampSim-master/CRC2_trace/bwaves_183B.trace.gz
gunzip: can't stat: /Volumes/HFS+/project/champsim/ChampSim-master/CRC2_trace/bwaves_183B.trace.gz (/Volumes/HFS+/project/champsim/ChampSim-master/CRC2_trace/bwaves_183B.trace.gz.gz): No such file or directory
*** Reached end of trace for Core: 0 Repeating trace: /Volumes/HFS+/project/champsim/ChampSim-master/CRC2_trace/bwaves_183B.trace.gz
gunzip: can't stat: /Volumes/HFS+/project/champsim/ChampSim-master/CRC2_trace/bwaves_183B.trace.gz (/Volumes/HFS+/project/champsim/ChampSim-master/CRC2_trace/bwaves_183B.trace.gz.gz): No such file or directory
*** Reached end of trace for Core: 0 Repeating trace: /Volumes/HFS+/project/champsim/ChampSim-master/CRC2_trace/bwaves_183B.trace.gz
gunzip: can't stat: /Volumes/HFS+/project/champsim/ChampSim-master/CRC2_trace/bwaves_183B.trace.gz (/Volumes/HFS+/project/champsim/ChampSim-master/CRC2_trace/bwaves_183B.trace.gz.gz): No such file or directory
*** Reached end of trace for Core: 0 Repeating trace: /Volumes/HFS+/project/champsim/ChampSim-master/CRC2_trace/bwaves_183B.trace.gz
gunzip: can't stat: /Volumes/HFS+/project/champsim/ChampSim-master/CRC2_trace/bwaves_183B.trace.gz (/Volumes/HFS+/project/champsim/ChampSim-master/CRC2_trace/bwaves_183B.trace.gz.gz): No such file or directory
*** Reached end of trace for Core: 0 Repeating trace: /Volumes/HFS+/project/champsim/ChampSim-master/CRC2_trace/bwaves_183B.trace.gz
gunzip: can't stat: /Volumes/HFS+/project/champsim/ChampSim-master/CRC2_trace/bwaves_183B.trace.gz (/Volumes/HFS+/project/champsim/ChampSim-master/CRC2_trace/bwaves_183B.trace.gz.gz): No such file or directory
*** Reached end of trace for Core: 0 Repeating trace: /Volumes/HFS+/project/champsim/ChampSim-master/CRC2_trace/bwaves_183B.trace.gz
gunzip: can't stat: /Volumes/HFS+/project/champsim/ChampSim-master/CRC2_trace/bwaves_183B.trace.gz (/Volumes/HFS+/project/champsim/ChampSim-master/CRC2_trace/bwaves_183B.trace.gz.gz): No such file or directory
*** Reached end of trace for Core: 0 Repeating trace: /Volumes/HFS+/project/champsim/ChampSim-master/CRC2_trace/bwaves_183B.trace.gz
gunzip: can't stat: /Volumes/HFS+/project/champsim/ChampSim-master/CRC2_trace/bwaves_183B.trace.gz (/Volumes/HFS+/project/champsim/ChampSim-master/CRC2_trace/bwaves_183B.trace.gz.gz): No such file or directory
*** Reached end of trace for Core: 0 Repeating trace: /Volumes/HFS+/project/champsim/ChampSim-master/CRC2_trace/bwaves_183B.trace.gz
gunzip: can't stat: /Volumes/HFS+/project/champsim/ChampSim-master/CRC2_trace/bwaves_183B.trace.gz (/Volumes/HFS+/project/champsim/ChampSim-master/CRC2_trace/bwaves_183B.trace.gz.gz): No such file or directory
*** Reached end of trace for Core: 0 Repeating trace: /Volumes/HFS+/project/champsim/ChampSim-master/CRC2_trace/bwaves_183B.trace.gz
gunzip: can't stat: /Volumes/HFS+/project/champsim/ChampSim-master/CRC2_trace/bwaves_183B.trace.gz (/Volumes/HFS+/project/champsim/ChampSim-master/CRC2_trace/bwaves_183B.trace.gz.gz): No such file or directory
*** Reached end of trace for Core: 0 Repeating trace: /Volumes/HFS+/project/champsim/ChampSim-master/CRC2_trace/bwaves_183B.trace.gz
gunzip: can't stat: /Volumes/HFS+/project/champsim/ChampSim-master/CRC2_trace/bwaves_183B.trace.gz (/Volumes/HFS+/project/champsim/ChampSim-master/CRC2_trace/bwaves_183B.trace.gz.gz): No such file or directory
*** Reached end of trace for Core: 0 Repeating trace: /Volumes/HFS+/project/champsim/ChampSim-master/CRC2_trace/bwaves_183B.trace.gz
gunzip: can't stat: /Volumes/HFS+/project/champsim/ChampSim-master/CRC2_trace/bwaves_183B.trace.gz (/Volumes/HFS+/project/champsim/ChampSim-master/CRC2_trace/bwaves_183B.trace.gz.gz): No such file or directory
*** Reached end of trace for Core: 0 Repeating trace: /Volumes/HFS+/project/champsim/ChampSim-master/CRC2_trace/bwaves_183B.trace.gz
gunzip: can't stat: /Volumes/HFS+/project/champsim/ChampSim-master/CRC2_trace/bwaves_183B.trace.gz (/Volumes/HFS+/project/champsim/ChampSim-master/CRC2_trace/bwaves_183B.trace.gz.gz): No such file or directory
*** Reached end of trace for Core: 0 Repeating trace: /Volumes/HFS+/project/champsim/ChampSim-master/CRC2_trace/bwaves_183B.trace.gz
gunzip: can't stat: /Volumes/HFS+/project/champsim/ChampSim-master/CRC2_trace/bwaves_183B.trace.gz (/Volumes/HFS+/project/champsim/ChampSim-master/CRC2_trace/bwaves_183B.trace.gz.gz): No such file or directory
*** Reached end of trace for Core: 0 Repeating trace: /Volumes/HFS+/project/champsim/ChampSim-master/CRC2_trace/bwaves_183B.trace.gz
gunzip: can't stat: /Volumes/HFS+/project/champsim/ChampSim-master/CRC2_trace/bwaves_183B.trace.gz (/Volumes/HFS+/project/champsim/ChampSim-master/CRC2_trace/bwaves_183B.trace.gz.gz): No such file or directory
*** Reached end of trace for Core: 0 Repeating trace: /Volumes/HFS+/project/champsim/ChampSim-master/CRC2_trace/bwaves_183B.trace.gz
gunzip: can't stat: /Volumes/HFS+/project/champsim/ChampSim-master/CRC2_trace/bwaves_183B.trace.gz (/Volumes/HFS+/project/champsim/ChampSim-master/CRC2_trace/bwaves_183B.trace.gz.gz): No such file or directory
*** Reached end of trace for Core: 0 Repeating trace: /Volumes/HFS+/project/champsim/ChampSim-master/CRC2_trace/bwaves_183B.trace.gz
gunzip: can't stat: /Volumes/HFS+/project/champsim/ChampSim-master/CRC2_trace/bwaves_183B.trace.gz (/Volumes/HFS+/project/champsim/ChampSim-master/CRC2_trace/bwaves_183B.trace.gz.gz): No such file or directory
*** Reached end of trace for Core: 0 Repeating trace: /Volumes/HFS+/project/champsim/ChampSim-master/CRC2_trace/bwaves_183B.trace.gz
gunzip: can't stat: /Volumes/HFS+/project/champsim/ChampSim-master/CRC2_trace/bwaves_183B.trace.gz (/Volumes/HFS+/project/champsim/ChampSim-master/CRC2_trace/bwaves_183B.trace.gz.gz): No such file or directory
*** Reached end of trace for Core: 0 Repeating trace: /Volumes/HFS+/project/champsim/ChampSim-master/CRC2_trace/bwaves_183B.trace.gz
gunzip: can't stat: /Volumes/HFS+/project/champsim/ChampSim-master/CRC2_trace/bwaves_183B.trace.gz (/Volumes/HFS+/project/champsim/ChampSim-master/CRC2_trace/bwaves_183B.trace.gz.gz): No such file or directory
*** Reached end of trace for Core: 0 Repeating trace: /Volumes/HFS+/project/champsim/ChampSim-master/CRC2_trace/bwaves_183B.trace.gz
gunzip: can't stat: /Volumes/HFS+/project/champsim/ChampSim-master/CRC2_trace/bwaves_183B.trace.gz (/Volumes/HFS+/project/champsim/ChampSim-master/CRC2_trace/bwaves_183B.trace.gz.gz): No such file or directory
*** Reached end of trace for Core: 0 Repeating trace: /Volumes/HFS+/project/champsim/ChampSim-master/CRC2_trace/bwaves_183B.trace.gz
gunzip: can't stat: /Volumes/HFS+/project/champsim/ChampSim-master/CRC2_trace/bwaves_183B.trace.gz (/Volumes/HFS+/project/champsim/ChampSim-master/CRC2_trace/bwaves_183B.trace.gz.gz): No such file or directory
*** Reached end of trace for Core: 0 Repeating trace: /Volumes/HFS+/project/champsim/ChampSim-master/CRC2_trace/bwaves_183B.trace.gz
gunzip: can't stat: /Volumes/HFS+/project/champsim/ChampSim-master/CRC2_trace/bwaves_183B.trace.gz (/Volumes/HFS+/project/champsim/ChampSim-master/CRC2_trace/bwaves_183B.trace.gz.gz): No such file or directory
*** Reached end of trace for Core: 0 Repeating trace: /Volumes/HFS+/project/champsim/ChampSim-master/CRC2_trace/bwaves_183B.trace.gz
gunzip: can't stat: /Volumes/HFS+/project/champsim/ChampSim-master/CRC2_trace/bwaves_183B.trace.gz (/Volumes/HFS+/project/champsim/ChampSim-master/CRC2_trace/bwaves_183B.trace.gz.gz): No such file or directory
*** Reached end of trace for Core: 0 Repeating trace: /Volumes/HFS+/project/champsim/ChampSim-master/CRC2_trace/bwaves_183B.trace.gz
gunzip: can't stat: /Volumes/HFS+/project/champsim/ChampSim-master/CRC2_trace/bwaves_183B.trace.gz (/Volumes/HFS+/project/champsim/ChampSim-master/CRC2_trace/bwaves_183B.trace.gz.gz): No such file or directory
*** Reached end of trace for Core: 0 Repeating trace: /Volumes/HFS+/project/champsim/ChampSim-master/CRC2_trace/bwaves_183B.trace.gz
gunzip: can't stat: /Volumes/HFS+/project/champsim/ChampSim-master/CRC2_trace/bwaves_183B.trace.gz (/Volumes/HFS+/project/champsim/ChampSim-master/CRC2_trace/bwaves_183B.trace.gz.gz): No such file or directory
*** Reached end of trace for Core: 0 Repeating trace: /Volumes/HFS+/project/champsim/ChampSim-master/CRC2_trace/bwaves_183B.trace.gz
gunzip: can't stat: /Volumes/HFS+/project/champsim/ChampSim-master/CRC2_trace/bwaves_183B.trace.gz (/Volumes/HFS+/project/champsim/ChampSim-master/CRC2_trace/bwaves_183B.trace.gz.gz): No such file or directory
*** Reached end of trace for Core: 0 Repeating trace: /Volumes/HFS+/project/champsim/ChampSim-master/CRC2_trace/bwaves_183B.trace.gz
gunzip: can't stat: /Volumes/HFS+/project/champsim/ChampSim-master/CRC2_trace/bwaves_183B.trace.gz (/Volumes/HFS+/project/champsim/ChampSim-master/CRC2_trace/bwaves_183B.trace.gz.gz): No such file or directory
*** Reached end of trace for Core: 0 Repeating trace: /Volumes/HFS+/project/champsim/ChampSim-master/CRC2_trace/bwaves_183B.trace.gz
gunzip: can't stat: /Volumes/HFS+/project/champsim/ChampSim-master/CRC2_trace/bwaves_183B.trace.gz (/Volumes/HFS+/project/champsim/ChampSim-master/CRC2_trace/bwaves_183B.trace.gz.gz): No such file or directory
*** Reached end of trace for Core: 0 Repeating trace: /Volumes/HFS+/project/champsim/ChampSim-master/CRC2_trace/bwaves_183B.trace.gz
gunzip: can't stat: /Volumes/HFS+/project/champsim/ChampSim-master/CRC2_trace/bwaves_183B.trace.gz (/Volumes/HFS+/project/champsim/ChampSim-master/CRC2_trace/bwaves_183B.trace.gz.gz): No such file or directory
*** Reached end of trace for Core: 0 Repeating trace: /Volumes/HFS+/project/champsim/ChampSim-master/CRC2_trace/bwaves_183B.trace.gz
gunzip: can't stat: /Volumes/HFS+/project/champsim/ChampSim-master/CRC2_trace/bwaves_183B.trace.gz (/Volumes/HFS+/project/champsim/ChampSim-master/CRC2_trace/bwaves_183B.trace.gz.gz): No such file or directory
*** Reached end of trace for Core: 0 Repeating trace: /Volumes/HFS+/project/champsim/ChampSim-master/CRC2_trace/bwaves_183B.trace.gz
gunzip: can't stat: /Volumes/HFS+/project/champsim/ChampSim-master/CRC2_trace/bwaves_183B.trace.gz (/Volumes/HFS+/project/champsim/ChampSim-master/CRC2_trace/bwaves_183B.trace.gz.gz): No such file or directory
*** Reached end of trace for Core: 0 Repeating trace: /Volumes/HFS+/project/champsim/ChampSim-master/CRC2_trace/bwaves_183B.trace.gz
gunzip: can't stat: /Volumes/HFS+/project/champsim/ChampSim-master/CRC2_trace/bwaves_183B.trace.gz (/Volumes/HFS+/project/champsim/ChampSim-master/CRC2_trace/bwaves_183B.trace.gz.gz): No such file or directory
*** Reached end of trace for Core: 0 Repeating trace: /Volumes/HFS+/project/champsim/ChampSim-master/CRC2_trace/bwaves_183B.trace.gz
gunzip: can't stat: /Volumes/HFS+/project/champsim/ChampSim-master/CRC2_trace/bwaves_183B.trace.gz (/Volumes/HFS+/project/champsim/ChampSim-master/CRC2_trace/bwaves_183B.trace.gz.gz): No such file or directory
*** Reached end of trace for Core: 0 Repeating trace: /Volumes/HFS+/project/champsim/ChampSim-master/CRC2_trace/bwaves_183B.trace.gz
gunzip: can't stat: /Volumes/HFS+/project/champsim/ChampSim-master/CRC2_trace/bwaves_183B.trace.gz (/Volumes/HFS+/project/champsim/ChampSim-master/CRC2_trace/bwaves_183B.trace.gz.gz): No such file or directory
*** Reached end of trace for Core: 0 Repeating trace: /Volumes/HFS+/project/champsim/ChampSim-master/CRC2_trace/bwaves_183B.trace.gz
gunzip: can't stat: /Volumes/HFS+/project/champsim/ChampSim-master/CRC2_trace/bwaves_183B.trace.gz (/Volumes/HFS+/project/champsim/ChampSim-master/CRC2_trace/bwaves_183B.trace.gz.gz): No such file or directory
*** Reached end of trace for Core: 0 Repeating trace: /Volumes/HFS+/project/champsim/ChampSim-master/CRC2_trace/bwaves_183B.trace.gz
gunzip: can't stat: /Volumes/HFS+/project/champsim/ChampSim-master/CRC2_trace/bwaves_183B.trace.gz (/Volumes/HFS+/project/champsim/ChampSim-master/CRC2_trace/bwaves_183B.trace.gz.gz): No such file or directory
*** Reached end of trace for Core: 0 Repeating trace: /Volumes/HFS+/project/champsim/ChampSim-master/CRC2_trace/bwaves_183B.trace.gz
gunzip: can't stat: /Volumes/HFS+/project/champsim/ChampSim-master/CRC2_trace/bwaves_183B.trace.gz (/Volumes/HFS+/project/champsim/ChampSim-master/CRC2_trace/bwaves_183B.trace.gz.gz): No such file or directory
*** Reached end of trace for Core: 0 Repeating trace: /Volumes/HFS+/project/champsim/ChampSim-master/CRC2_trace/bwaves_183B.trace.gz
gunzip: can't stat: /Volumes/HFS+/project/champsim/ChampSim-master/CRC2_trace/bwaves_183B.trace.gz (/Volumes/HFS+/project/champsim/ChampSim-master/CRC2_trace/bwaves_183B.trace.gz.gz): No such file or directory
*** Reached end of trace for Core: 0 Repeating trace: /Volumes/HFS+/project/champsim/ChampSim-master/CRC2_trace/bwaves_183B.trace.gz
gunzip: can't stat: /Volumes/HFS+/project/champsim/ChampSim-master/CRC2_trace/bwaves_183B.trace.gz (/Volumes/HFS+/project/champsim/ChampSim-master/CRC2_trace/bwaves_183B.trace.gz.gz): No such file or directory
*** Reached end of trace for Core: 0 Repeating trace: /Volumes/HFS+/project/champsim/ChampSim-master/CRC2_trace/bwaves_183B.trace.gz
gunzip: can't stat: /Volumes/HFS+/project/champsim/ChampSim-master/CRC2_trace/bwaves_183B.trace.gz (/Volumes/HFS+/project/champsim/ChampSim-master/CRC2_trace/bwaves_183B.trace.gz.gz): No such file or directory
*** Reached end of trace for Core: 0 Repeating trace: /Volumes/HFS+/project/champsim/ChampSim-master/CRC2_trace/bwaves_183B.trace.gz
gunzip: can't stat: /Volumes/HFS+/project/champsim/ChampSim-master/CRC2_trace/bwaves_183B.trace.gz (/Volumes/HFS+/project/champsim/ChampSim-master/CRC2_trace/bwaves_183B.trace.gz.gz): No such file or directory
*** Reached end of trace for Core: 0 Repeating trace: /Volumes/HFS+/project/champsim/ChampSim-master/CRC2_trace/bwaves_183B.trace.gz
gunzip: can't stat: /Volumes/HFS+/project/champsim/ChampSim-master/CRC2_trace/bwaves_183B.trace.gz (/Volumes/HFS+/project/champsim/ChampSim-master/CRC2_trace/bwaves_183B.trace.gz.gz): No such file or directory
*** Reached end of trace for Core: 0 Repeating trace: /Volumes/HFS+/project/champsim/ChampSim-master/CRC2_trace/bwaves_183B.trace.gz
gunzip: can't stat: /Volumes/HFS+/project/champsim/ChampSim-master/CRC2_trace/bwaves_183B.trace.gz (/Volumes/HFS+/project/champsim/ChampSim-master/CRC2_trace/bwaves_183B.trace.gz.gz): No such file or directory
*** Reached end of trace for Core: 0 Repeating trace: /Volumes/HFS+/project/champsim/ChampSim-master/CRC2_trace/bwaves_183B.trace.gz
gunzip: can't stat: /Volumes/HFS+/project/champsim/ChampSim-master/CRC2_trace/bwaves_183B.trace.gz (/Volumes/HFS+/project/champsim/ChampSim-master/CRC2_trace/bwaves_183B.trace.gz.gz): No such file or directory
*** Reached end of trace for Core: 0 Repeating trace: /Volumes/HFS+/project/champsim/ChampSim-master/CRC2_trace/bwaves_183B.trace.gz
gunzip: can't stat: /Volumes/HFS+/project/champsim/ChampSim-master/CRC2_trace/bwaves_183B.trace.gz (/Volumes/HFS+/project/champsim/ChampSim-master/CRC2_trace/bwaves_183B.trace.gz.gz): No such file or directory
*** Reached end of trace for Core: 0 Repeating trace: /Volumes/HFS+/project/champsim/ChampSim-master/CRC2_trace/bwaves_183B.trace.gz
gunzip: can't stat: /Volumes/HFS+/project/champsim/ChampSim-master/CRC2_trace/bwaves_183B.trace.gz (/Volumes/HFS+/project/champsim/ChampSim-master/CRC2_trace/bwaves_183B.trace.gz.gz): No such file or directory
*** Reached end of trace for Core: 0 Repeating trace: /Volumes/HFS+/project/champsim/ChampSim-master/CRC2_trace/bwaves_183B.trace.gz
gunzip: can't stat: /Volumes/HFS+/project/champsim/ChampSim-master/CRC2_trace/bwaves_183B.trace.gz (/Volumes/HFS+/project/champsim/ChampSim-master/CRC2_trace/bwaves_183B.trace.gz.gz): No such file or directory
*** Reached end of trace for Core: 0 Repeating trace: /Volumes/HFS+/project/champsim/ChampSim-master/CRC2_trace/bwaves_183B.trace.gz
gunzip: can't stat: /Volumes/HFS+/project/champsim/ChampSim-master/CRC2_trace/bwaves_183B.trace.gz (/Volumes/HFS+/project/champsim/ChampSim-master/CRC2_trace/bwaves_183B.trace.gz.gz): No such file or directory
*** Reached end of trace for Core: 0 Repeating trace: /Volumes/HFS+/project/champsim/ChampSim-master/CRC2_trace/bwaves_183B.trace.gz
gunzip: can't stat: /Volumes/HFS+/project/champsim/ChampSim-master/CRC2_trace/bwaves_183B.trace.gz (/Volumes/HFS+/project/champsim/ChampSim-master/CRC2_trace/bwaves_183B.trace.gz.gz): No such file or directory
*** Reached end of trace for Core: 0 Repeating trace: /Volumes/HFS+/project/champsim/ChampSim-master/CRC2_trace/bwaves_183B.trace.gz
gunzip: can't stat: /Volumes/HFS+/project/champsim/ChampSim-master/CRC2_trace/bwaves_183B.trace.gz (/Volumes/HFS+/project/champsim/ChampSim-master/CRC2_trace/bwaves_183B.trace.gz.gz): No such file or directory
*** Reached end of trace for Core: 0 Repeating trace: /Volumes/HFS+/project/champsim/ChampSim-master/CRC2_trace/bwaves_183B.trace.gz
gunzip: can't stat: /Volumes/HFS+/project/champsim/ChampSim-master/CRC2_trace/bwaves_183B.trace.gz (/Volumes/HFS+/project/champsim/ChampSim-master/CRC2_trace/bwaves_183B.trace.gz.gz): No such file or directory
*** Reached end of trace for Core: 0 Repeating trace: /Volumes/HFS+/project/champsim/ChampSim-master/CRC2_trace/bwaves_183B.trace.gz
gunzip: can't stat: /Volumes/HFS+/project/champsim/ChampSim-master/CRC2_trace/bwaves_183B.trace.gz (/Volumes/HFS+/project/champsim/ChampSim-master/CRC2_trace/bwaves_183B.trace.gz.gz): No such file or directory
*** Reached end of trace for Core: 0 Repeating trace: /Volumes/HFS+/project/champsim/ChampSim-master/CRC2_trace/bwaves_183B.trace.gz
gunzip: can't stat: /Volumes/HFS+/project/champsim/ChampSim-master/CRC2_trace/bwaves_183B.trace.gz (/Volumes/HFS+/project/champsim/ChampSim-master/CRC2_trace/bwaves_183B.trace.gz.gz): No such file or directory
*** Reached end of trace for Core: 0 Repeating trace: /Volumes/HFS+/project/champsim/ChampSim-master/CRC2_trace/bwaves_183B.trace.gz
gunzip: can't stat: /Volumes/HFS+/project/champsim/ChampSim-master/CRC2_trace/bwaves_183B.trace.gz (/Volumes/HFS+/project/champsim/ChampSim-master/CRC2_trace/bwaves_183B.trace.gz.gz): No such file or directory
*** Reached end of trace for Core: 0 Repeating trace: /Volumes/HFS+/project/champsim/ChampSim-master/CRC2_trace/bwaves_183B.trace.gz
gunzip: can't stat: /Volumes/HFS+/project/champsim/ChampSim-master/CRC2_trace/bwaves_183B.trace.gz (/Volumes/HFS+/project/champsim/ChampSim-master/CRC2_trace/bwaves_183B.trace.gz.gz): No such file or directory
*** Reached end of trace for Core: 0 Repeating trace: /Volumes/HFS+/project/champsim/ChampSim-master/CRC2_trace/bwaves_183B.trace.gz
gunzip: can't stat: /Volumes/HFS+/project/champsim/ChampSim-master/CRC2_trace/bwaves_183B.trace.gz (/Volumes/HFS+/project/champsim/ChampSim-master/CRC2_trace/bwaves_183B.trace.gz.gz): No such file or directory
*** Reached end of trace for Core: 0 Repeating trace: /Volumes/HFS+/project/champsim/ChampSim-master/CRC2_trace/bwaves_183B.trace.gz
gunzip: can't stat: /Volumes/HFS+/project/champsim/ChampSim-master/CRC2_trace/bwaves_183B.trace.gz (/Volumes/HFS+/project/champsim/ChampSim-master/CRC2_trace/bwaves_183B.trace.gz.gz): No such file or directory
*** Reached end of trace for Core: 0 Repeating trace: /Volumes/HFS+/project/champsim/ChampSim-master/CRC2_trace/bwaves_183B.trace.gz
gunzip: can't stat: /Volumes/HFS+/project/champsim/ChampSim-master/CRC2_trace/bwaves_183B.trace.gz (/Volumes/HFS+/project/champsim/ChampSim-master/CRC2_trace/bwaves_183B.trace.gz.gz): No such file or directory
*** Reached end of trace for Core: 0 Repeating trace: /Volumes/HFS+/project/champsim/ChampSim-master/CRC2_trace/bwaves_183B.trace.gz
gunzip: can't stat: /Volumes/HFS+/project/champsim/ChampSim-master/CRC2_trace/bwaves_183B.trace.gz (/Volumes/HFS+/project/champsim/ChampSim-master/CRC2_trace/bwaves_183B.trace.gz.gz): No such file or directory
*** Reached end of trace for Core: 0 Repeating trace: /Volumes/HFS+/project/champsim/ChampSim-master/CRC2_trace/bwaves_183B.trace.gz
gunzip: can't stat: /Volumes/HFS+/project/champsim/ChampSim-master/CRC2_trace/bwaves_183B.trace.gz (/Volumes/HFS+/project/champsim/ChampSim-master/CRC2_trace/bwaves_183B.trace.gz.gz): No such file or directory
*** Reached end of trace for Core: 0 Repeating trace: /Volumes/HFS+/project/champsim/ChampSim-master/CRC2_trace/bwaves_183B.trace.gz
gunzip: can't stat: /Volumes/HFS+/project/champsim/ChampSim-master/CRC2_trace/bwaves_183B.trace.gz (/Volumes/HFS+/project/champsim/ChampSim-master/CRC2_trace/bwaves_183B.trace.gz.gz): No such file or directory
*** Reached end of trace for Core: 0 Repeating trace: /Volumes/HFS+/project/champsim/ChampSim-master/CRC2_trace/bwaves_183B.trace.gz
gunzip: can't stat: /Volumes/HFS+/project/champsim/ChampSim-master/CRC2_trace/bwaves_183B.trace.gz (/Volumes/HFS+/project/champsim/ChampSim-master/CRC2_trace/bwaves_183B.trace.gz.gz): No such file or directory
*** Reached end of trace for Core: 0 Repeating trace: /Volumes/HFS+/project/champsim/ChampSim-master/CRC2_trace/bwaves_183B.trace.gz
gunzip: can't stat: /Volumes/HFS+/project/champsim/ChampSim-master/CRC2_trace/bwaves_183B.trace.gz (/Volumes/HFS+/project/champsim/ChampSim-master/CRC2_trace/bwaves_183B.trace.gz.gz): No such file or directory
*** Reached end of trace for Core: 0 Repeating trace: /Volumes/HFS+/project/champsim/ChampSim-master/CRC2_trace/bwaves_183B.trace.gz
gunzip: can't stat: /Volumes/HFS+/project/champsim/ChampSim-master/CRC2_trace/bwaves_183B.trace.gz (/Volumes/HFS+/project/champsim/ChampSim-master/CRC2_trace/bwaves_183B.trace.gz.gz): No such file or directory
*** Reached end of trace for Core: 0 Repeating trace: /Volumes/HFS+/project/champsim/ChampSim-master/CRC2_trace/bwaves_183B.trace.gz
gunzip: can't stat: /Volumes/HFS+/project/champsim/ChampSim-master/CRC2_trace/bwaves_183B.trace.gz (/Volumes/HFS+/project/champsim/ChampSim-master/CRC2_trace/bwaves_183B.trace.gz.gz): No such file or directory
*** Reached end of trace for Core: 0 Repeating trace: /Volumes/HFS+/project/champsim/ChampSim-master/CRC2_trace/bwaves_183B.trace.gz
gunzip: can't stat: /Volumes/HFS+/project/champsim/ChampSim-master/CRC2_trace/bwaves_183B.trace.gz (/Volumes/HFS+/project/champsim/ChampSim-master/CRC2_trace/bwaves_183B.trace.gz.gz): No such file or directory
*** Reached end of trace for Core: 0 Repeating trace: /Volumes/HFS+/project/champsim/ChampSim-master/CRC2_trace/bwaves_183B.trace.gz
gunzip: can't stat: /Volumes/HFS+/project/champsim/ChampSim-master/CRC2_trace/bwaves_183B.trace.gz (/Volumes/HFS+/project/champsim/ChampSim-master/CRC2_trace/bwaves_183B.trace.gz.gz): No such file or directory
*** Reached end of trace for Core: 0 Repeating trace: /Volumes/HFS+/project/champsim/ChampSim-master/CRC2_trace/bwaves_183B.trace.gz
gunzip: can't stat: /Volumes/HFS+/project/champsim/ChampSim-master/CRC2_trace/bwaves_183B.trace.gz (/Volumes/HFS+/project/champsim/ChampSim-master/CRC2_trace/bwaves_183B.trace.gz.gz): No such file or directory
*** Reached end of trace for Core: 0 Repeating trace: /Volumes/HFS+/project/champsim/ChampSim-master/CRC2_trace/bwaves_183B.trace.gz
gunzip: can't stat: /Volumes/HFS+/project/champsim/ChampSim-master/CRC2_trace/bwaves_183B.trace.gz (/Volumes/HFS+/project/champsim/ChampSim-master/CRC2_trace/bwaves_183B.trace.gz.gz): No such file or directory
*** Reached end of trace for Core: 0 Repeating trace: /Volumes/HFS+/project/champsim/ChampSim-master/CRC2_trace/bwaves_183B.trace.gz
gunzip: can't stat: /Volumes/HFS+/project/champsim/ChampSim-master/CRC2_trace/bwaves_183B.trace.gz (/Volumes/HFS+/project/champsim/ChampSim-master/CRC2_trace/bwaves_183B.trace.gz.gz): No such file or directory
*** Reached end of trace for Core: 0 Repeating trace: /Volumes/HFS+/project/champsim/ChampSim-master/CRC2_trace/bwaves_183B.trace.gz
gunzip: can't stat: /Volumes/HFS+/project/champsim/ChampSim-master/CRC2_trace/bwaves_183B.trace.gz (/Volumes/HFS+/project/champsim/ChampSim-master/CRC2_trace/bwaves_183B.trace.gz.gz): No such file or directory
*** Reached end of trace for Core: 0 Repeating trace: /Volumes/HFS+/project/champsim/ChampSim-master/CRC2_trace/bwaves_183B.trace.gz
gunzip: can't stat: /Volumes/HFS+/project/champsim/ChampSim-master/CRC2_trace/bwaves_183B.trace.gz (/Volumes/HFS+/project/champsim/ChampSim-master/CRC2_trace/bwaves_183B.trace.gz.gz): No such file or directory
*** Reached end of trace for Core: 0 Repeating trace: /Volumes/HFS+/project/champsim/ChampSim-master/CRC2_trace/bwaves_183B.trace.gz
gunzip: can't stat: /Volumes/HFS+/project/champsim/ChampSim-master/CRC2_trace/bwaves_183B.trace.gz (/Volumes/HFS+/project/champsim/ChampSim-master/CRC2_trace/bwaves_183B.trace.gz.gz): No such file or directory
*** Reached end of trace for Core: 0 Repeating trace: /Volumes/HFS+/project/champsim/ChampSim-master/CRC2_trace/bwaves_183B.trace.gz
gunzip: can't stat: /Volumes/HFS+/project/champsim/ChampSim-master/CRC2_trace/bwaves_183B.trace.gz (/Volumes/HFS+/project/champsim/ChampSim-master/CRC2_trace/bwaves_183B.trace.gz.gz): No such file or directory
*** Reached end of trace for Core: 0 Repeating trace: /Volumes/HFS+/project/champsim/ChampSim-master/CRC2_trace/bwaves_183B.trace.gz
gunzip: can't stat: /Volumes/HFS+/project/champsim/ChampSim-master/CRC2_trace/bwaves_183B.trace.gz (/Volumes/HFS+/project/champsim/ChampSim-master/CRC2_trace/bwaves_183B.trace.gz.gz): No such file or directory
*** Reached end of trace for Core: 0 Repeating trace: /Volumes/HFS+/project/champsim/ChampSim-master/CRC2_trace/bwaves_183B.trace.gz
gunzip: can't stat: /Volumes/HFS+/project/champsim/ChampSim-master/CRC2_trace/bwaves_183B.trace.gz (/Volumes/HFS+/project/champsim/ChampSim-master/CRC2_trace/bwaves_183B.trace.gz.gz): No such file or directory
*** Reached end of trace for Core: 0 Repeating trace: /Volumes/HFS+/project/champsim/ChampSim-master/CRC2_trace/bwaves_183B.trace.gz
gunzip: can't stat: /Volumes/HFS+/project/champsim/ChampSim-master/CRC2_trace/bwaves_183B.trace.gz (/Volumes/HFS+/project/champsim/ChampSim-master/CRC2_trace/bwaves_183B.trace.gz.gz): No such file or directory
*** Reached end of trace for Core: 0 Repeating trace: /Volumes/HFS+/project/champsim/ChampSim-master/CRC2_trace/bwaves_183B.trace.gz
gunzip: can't stat: /Volumes/HFS+/project/champsim/ChampSim-master/CRC2_trace/bwaves_183B.trace.gz (/Volumes/HFS+/project/champsim/ChampSim-master/CRC2_trace/bwaves_183B.trace.gz.gz): No such file or directory
*** Reached end of trace for Core: 0 Repeating trace: /Volumes/HFS+/project/champsim/ChampSim-master/CRC2_trace/bwaves_183B.trace.gz
gunzip: can't stat: /Volumes/HFS+/project/champsim/ChampSim-master/CRC2_trace/bwaves_183B.trace.gz (/Volumes/HFS+/project/champsim/ChampSim-master/CRC2_trace/bwaves_183B.trace.gz.gz): No such file or directory
*** Reached end of trace for Core: 0 Repeating trace: /Volumes/HFS+/project/champsim/ChampSim-master/CRC2_trace/bwaves_183B.trace.gz
gunzip: can't stat: /Volumes/HFS+/project/champsim/ChampSim-master/CRC2_trace/bwaves_183B.trace.gz (/Volumes/HFS+/project/champsim/ChampSim-master/CRC2_trace/bwaves_183B.trace.gz.gz): No such file or directory
*** Reached end of trace for Core: 0 Repeating trace: /Volumes/HFS+/project/champsim/ChampSim-master/CRC2_trace/bwaves_183B.trace.gz
gunzip: can't stat: /Volumes/HFS+/project/champsim/ChampSim-master/CRC2_trace/bwaves_183B.trace.gz (/Volumes/HFS+/project/champsim/ChampSim-master/CRC2_trace/bwaves_183B.trace.gz.gz): No such file or directory
*** Reached end of trace for Core: 0 Repeating trace: /Volumes/HFS+/project/champsim/ChampSim-master/CRC2_trace/bwaves_183B.trace.gz
gunzip: can't stat: /Volumes/HFS+/project/champsim/ChampSim-master/CRC2_trace/bwaves_183B.trace.gz (/Volumes/HFS+/project/champsim/ChampSim-master/CRC2_trace/bwaves_183B.trace.gz.gz): No such file or directory
*** Reached end of trace for Core: 0 Repeating trace: /Volumes/HFS+/project/champsim/ChampSim-master/CRC2_trace/bwaves_183B.trace.gz
gunzip: can't stat: /Volumes/HFS+/project/champsim/ChampSim-master/CRC2_trace/bwaves_183B.trace.gz (/Volumes/HFS+/project/champsim/ChampSim-master/CRC2_trace/bwaves_183B.trace.gz.gz): No such file or directory
*** Reached end of trace for Core: 0 Repeating trace: /Volumes/HFS+/project/champsim/ChampSim-master/CRC2_trace/bwaves_183B.trace.gz
gunzip: can't stat: /Volumes/HFS+/project/champsim/ChampSim-master/CRC2_trace/bwaves_183B.trace.gz (/Volumes/HFS+/project/champsim/ChampSim-master/CRC2_trace/bwaves_183B.trace.gz.gz): No such file or directory
*** Reached end of trace for Core: 0 Repeating trace: /Volumes/HFS+/project/champsim/ChampSim-master/CRC2_trace/bwaves_183B.trace.gz
gunzip: can't stat: /Volumes/HFS+/project/champsim/ChampSim-master/CRC2_trace/bwaves_183B.trace.gz (/Volumes/HFS+/project/champsim/ChampSim-master/CRC2_trace/bwaves_183B.trace.gz.gz): No such file or directory
*** Reached end of trace for Core: 0 Repeating trace: /Volumes/HFS+/project/champsim/ChampSim-master/CRC2_trace/bwaves_183B.trace.gz
gunzip: can't stat: /Volumes/HFS+/project/champsim/ChampSim-master/CRC2_trace/bwaves_183B.trace.gz (/Volumes/HFS+/project/champsim/ChampSim-master/CRC2_trace/bwaves_183B.trace.gz.gz): No such file or directory
*** Reached end of trace for Core: 0 Repeating trace: /Volumes/HFS+/project/champsim/ChampSim-master/CRC2_trace/bwaves_183B.trace.gz
gunzip: can't stat: /Volumes/HFS+/project/champsim/ChampSim-master/CRC2_trace/bwaves_183B.trace.gz (/Volumes/HFS+/project/champsim/ChampSim-master/CRC2_trace/bwaves_183B.trace.gz.gz): No such file or directory
*** Reached end of trace for Core: 0 Repeating trace: /Volumes/HFS+/project/champsim/ChampSim-master/CRC2_trace/bwaves_183B.trace.gz
gunzip: can't stat: /Volumes/HFS+/project/champsim/ChampSim-master/CRC2_trace/bwaves_183B.trace.gz (/Volumes/HFS+/project/champsim/ChampSim-master/CRC2_trace/bwaves_183B.trace.gz.gz): No such file or directory
*** Reached end of trace for Core: 0 Repeating trace: /Volumes/HFS+/project/champsim/ChampSim-master/CRC2_trace/bwaves_183B.trace.gz
gunzip: can't stat: /Volumes/HFS+/project/champsim/ChampSim-master/CRC2_trace/bwaves_183B.trace.gz (/Volumes/HFS+/project/champsim/ChampSim-master/CRC2_trace/bwaves_183B.trace.gz.gz): No such file or directory
*** Reached end of trace for Core: 0 Repeating trace: /Volumes/HFS+/project/champsim/ChampSim-master/CRC2_trace/bwaves_183B.trace.gz
gunzip: can't stat: /Volumes/HFS+/project/champsim/ChampSim-master/CRC2_trace/bwaves_183B.trace.gz (/Volumes/HFS+/project/champsim/ChampSim-master/CRC2_trace/bwaves_183B.trace.gz.gz): No such file or directory
*** Reached end of trace for Core: 0 Repeating trace: /Volumes/HFS+/project/champsim/ChampSim-master/CRC2_trace/bwaves_183B.trace.gz
gunzip: can't stat: /Volumes/HFS+/project/champsim/ChampSim-master/CRC2_trace/bwaves_183B.trace.gz (/Volumes/HFS+/project/champsim/ChampSim-master/CRC2_trace/bwaves_183B.trace.gz.gz): No such file or directory
*** Reached end of trace for Core: 0 Repeating trace: /Volumes/HFS+/project/champsim/ChampSim-master/CRC2_trace/bwaves_183B.trace.gz
gunzip: can't stat: /Volumes/HFS+/project/champsim/ChampSim-master/CRC2_trace/bwaves_183B.trace.gz (/Volumes/HFS+/project/champsim/ChampSim-master/CRC2_trace/bwaves_183B.trace.gz.gz): No such file or directory
*** Reached end of trace for Core: 0 Repeating trace: /Volumes/HFS+/project/champsim/ChampSim-master/CRC2_trace/bwaves_183B.trace.gz
gunzip: can't stat: /Volumes/HFS+/project/champsim/ChampSim-master/CRC2_trace/bwaves_183B.trace.gz (/Volumes/HFS+/project/champsim/ChampSim-master/CRC2_trace/bwaves_183B.trace.gz.gz): No such file or directory
*** Reached end of trace for Core: 0 Repeating trace: /Volumes/HFS+/project/champsim/ChampSim-master/CRC2_trace/bwaves_183B.trace.gz
gunzip: can't stat: /Volumes/HFS+/project/champsim/ChampSim-master/CRC2_trace/bwaves_183B.trace.gz (/Volumes/HFS+/project/champsim/ChampSim-master/CRC2_trace/bwaves_183B.trace.gz.gz): No such file or directory
*** Reached end of trace for Core: 0 Repeating trace: /Volumes/HFS+/project/champsim/ChampSim-master/CRC2_trace/bwaves_183B.trace.gz
gunzip: can't stat: /Volumes/HFS+/project/champsim/ChampSim-master/CRC2_trace/bwaves_183B.trace.gz (/Volumes/HFS+/project/champsim/ChampSim-master/CRC2_trace/bwaves_183B.trace.gz.gz): No such file or directory
*** Reached end of trace for Core: 0 Repeating trace: /Volumes/HFS+/project/champsim/ChampSim-master/CRC2_trace/bwaves_183B.trace.gz
gunzip: can't stat: /Volumes/HFS+/project/champsim/ChampSim-master/CRC2_trace/bwaves_183B.trace.gz (/Volumes/HFS+/project/champsim/ChampSim-master/CRC2_trace/bwaves_183B.trace.gz.gz): No such file or directory
*** Reached end of trace for Core: 0 Repeating trace: /Volumes/HFS+/project/champsim/ChampSim-master/CRC2_trace/bwaves_183B.trace.gz
gunzip: can't stat: /Volumes/HFS+/project/champsim/ChampSim-master/CRC2_trace/bwaves_183B.trace.gz (/Volumes/HFS+/project/champsim/ChampSim-master/CRC2_trace/bwaves_183B.trace.gz.gz): No such file or directory
*** Reached end of trace for Core: 0 Repeating trace: /Volumes/HFS+/project/champsim/ChampSim-master/CRC2_trace/bwaves_183B.trace.gz
gunzip: can't stat: /Volumes/HFS+/project/champsim/ChampSim-master/CRC2_trace/bwaves_183B.trace.gz (/Volumes/HFS+/project/champsim/ChampSim-master/CRC2_trace/bwaves_183B.trace.gz.gz): No such file or directory
*** Reached end of trace for Core: 0 Repeating trace: /Volumes/HFS+/project/champsim/ChampSim-master/CRC2_trace/bwaves_183B.trace.gz
gunzip: can't stat: /Volumes/HFS+/project/champsim/ChampSim-master/CRC2_trace/bwaves_183B.trace.gz (/Volumes/HFS+/project/champsim/ChampSim-master/CRC2_trace/bwaves_183B.trace.gz.gz): No such file or directory
*** Reached end of trace for Core: 0 Repeating trace: /Volumes/HFS+/project/champsim/ChampSim-master/CRC2_trace/bwaves_183B.trace.gz
gunzip: can't stat: /Volumes/HFS+/project/champsim/ChampSim-master/CRC2_trace/bwaves_183B.trace.gz (/Volumes/HFS+/project/champsim/ChampSim-master/CRC2_trace/bwaves_183B.trace.gz.gz): No such file or directory
*** Reached end of trace for Core: 0 Repeating trace: /Volumes/HFS+/project/champsim/ChampSim-master/CRC2_trace/bwaves_183B.trace.gz
gunzip: can't stat: /Volumes/HFS+/project/champsim/ChampSim-master/CRC2_trace/bwaves_183B.trace.gz (/Volumes/HFS+/project/champsim/ChampSim-master/CRC2_trace/bwaves_183B.trace.gz.gz): No such file or directory
*** Reached end of trace for Core: 0 Repeating trace: /Volumes/HFS+/project/champsim/ChampSim-master/CRC2_trace/bwaves_183B.trace.gz
gunzip: can't stat: /Volumes/HFS+/project/champsim/ChampSim-master/CRC2_trace/bwaves_183B.trace.gz (/Volumes/HFS+/project/champsim/ChampSim-master/CRC2_trace/bwaves_183B.trace.gz.gz): No such file or directory
*** Reached end of trace for Core: 0 Repeating trace: /Volumes/HFS+/project/champsim/ChampSim-master/CRC2_trace/bwaves_183B.trace.gz
gunzip: can't stat: /Volumes/HFS+/project/champsim/ChampSim-master/CRC2_trace/bwaves_183B.trace.gz (/Volumes/HFS+/project/champsim/ChampSim-master/CRC2_trace/bwaves_183B.trace.gz.gz): No such file or directory
*** Reached end of trace for Core: 0 Repeating trace: /Volumes/HFS+/project/champsim/ChampSim-master/CRC2_trace/bwaves_183B.trace.gz
gunzip: can't stat: /Volumes/HFS+/project/champsim/ChampSim-master/CRC2_trace/bwaves_183B.trace.gz (/Volumes/HFS+/project/champsim/ChampSim-master/CRC2_trace/bwaves_183B.trace.gz.gz): No such file or directory
*** Reached end of trace for Core: 0 Repeating trace: /Volumes/HFS+/project/champsim/ChampSim-master/CRC2_trace/bwaves_183B.trace.gz
gunzip: can't stat: /Volumes/HFS+/project/champsim/ChampSim-master/CRC2_trace/bwaves_183B.trace.gz (/Volumes/HFS+/project/champsim/ChampSim-master/CRC2_trace/bwaves_183B.trace.gz.gz): No such file or directory
*** Reached end of trace for Core: 0 Repeating trace: /Volumes/HFS+/project/champsim/ChampSim-master/CRC2_trace/bwaves_183B.trace.gz
gunzip: can't stat: /Volumes/HFS+/project/champsim/ChampSim-master/CRC2_trace/bwaves_183B.trace.gz (/Volumes/HFS+/project/champsim/ChampSim-master/CRC2_trace/bwaves_183B.trace.gz.gz): No such file or directory
*** Reached end of trace for Core: 0 Repeating trace: /Volumes/HFS+/project/champsim/ChampSim-master/CRC2_trace/bwaves_183B.trace.gz
gunzip: can't stat: /Volumes/HFS+/project/champsim/ChampSim-master/CRC2_trace/bwaves_183B.trace.gz (/Volumes/HFS+/project/champsim/ChampSim-master/CRC2_trace/bwaves_183B.trace.gz.gz): No such file or directory
*** Reached end of trace for Core: 0 Repeating trace: /Volumes/HFS+/project/champsim/ChampSim-master/CRC2_trace/bwaves_183B.trace.gz
gunzip: can't stat: /Volumes/HFS+/project/champsim/ChampSim-master/CRC2_trace/bwaves_183B.trace.gz (/Volumes/HFS+/project/champsim/ChampSim-master/CRC2_trace/bwaves_183B.trace.gz.gz): No such file or directory
*** Reached end of trace for Core: 0 Repeating trace: /Volumes/HFS+/project/champsim/ChampSim-master/CRC2_trace/bwaves_183B.trace.gz
gunzip: can't stat: /Volumes/HFS+/project/champsim/ChampSim-master/CRC2_trace/bwaves_183B.trace.gz (/Volumes/HFS+/project/champsim/ChampSim-master/CRC2_trace/bwaves_183B.trace.gz.gz): No such file or directory
*** Reached end of trace for Core: 0 Repeating trace: /Volumes/HFS+/project/champsim/ChampSim-master/CRC2_trace/bwaves_183B.trace.gz
gunzip: can't stat: /Volumes/HFS+/project/champsim/ChampSim-master/CRC2_trace/bwaves_183B.trace.gz (/Volumes/HFS+/project/champsim/ChampSim-master/CRC2_trace/bwaves_183B.trace.gz.gz): No such file or directory
*** Reached end of trace for Core: 0 Repeating trace: /Volumes/HFS+/project/champsim/ChampSim-master/CRC2_trace/bwaves_183B.trace.gz
gunzip: can't stat: /Volumes/HFS+/project/champsim/ChampSim-master/CRC2_trace/bwaves_183B.trace.gz (/Volumes/HFS+/project/champsim/ChampSim-master/CRC2_trace/bwaves_183B.trace.gz.gz): No such file or directory
*** Reached end of trace for Core: 0 Repeating trace: /Volumes/HFS+/project/champsim/ChampSim-master/CRC2_trace/bwaves_183B.trace.gz
gunzip: can't stat: /Volumes/HFS+/project/champsim/ChampSim-master/CRC2_trace/bwaves_183B.trace.gz (/Volumes/HFS+/project/champsim/ChampSim-master/CRC2_trace/bwaves_183B.trace.gz.gz): No such file or directory
*** Reached end of trace for Core: 0 Repeating trace: /Volumes/HFS+/project/champsim/ChampSim-master/CRC2_trace/bwaves_183B.trace.gz
gunzip: can't stat: /Volumes/HFS+/project/champsim/ChampSim-master/CRC2_trace/bwaves_183B.trace.gz (/Volumes/HFS+/project/champsim/ChampSim-master/CRC2_trace/bwaves_183B.trace.gz.gz): No such file or directory
*** Reached end of trace for Core: 0 Repeating trace: /Volumes/HFS+/project/champsim/ChampSim-master/CRC2_trace/bwaves_183B.trace.gz
gunzip: can't stat: /Volumes/HFS+/project/champsim/ChampSim-master/CRC2_trace/bwaves_183B.trace.gz (/Volumes/HFS+/project/champsim/ChampSim-master/CRC2_trace/bwaves_183B.trace.gz.gz): No such file or directory
*** Reached end of trace for Core: 0 Repeating trace: /Volumes/HFS+/project/champsim/ChampSim-master/CRC2_trace/bwaves_183B.trace.gz
gunzip: can't stat: /Volumes/HFS+/project/champsim/ChampSim-master/CRC2_trace/bwaves_183B.trace.gz (/Volumes/HFS+/project/champsim/ChampSim-master/CRC2_trace/bwaves_183B.trace.gz.gz): No such file or directory
*** Reached end of trace for Core: 0 Repeating trace: /Volumes/HFS+/project/champsim/ChampSim-master/CRC2_trace/bwaves_183B.trace.gz
gunzip: can't stat: /Volumes/HFS+/project/champsim/ChampSim-master/CRC2_trace/bwaves_183B.trace.gz (/Volumes/HFS+/project/champsim/ChampSim-master/CRC2_trace/bwaves_183B.trace.gz.gz): No such file or directory
*** Reached end of trace for Core: 0 Repeating trace: /Volumes/HFS+/project/champsim/ChampSim-master/CRC2_trace/bwaves_183B.trace.gz
gunzip: can't stat: /Volumes/HFS+/project/champsim/ChampSim-master/CRC2_trace/bwaves_183B.trace.gz (/Volumes/HFS+/project/champsim/ChampSim-master/CRC2_trace/bwaves_183B.trace.gz.gz): No such file or directory
*** Reached end of trace for Core: 0 Repeating trace: /Volumes/HFS+/project/champsim/ChampSim-master/CRC2_trace/bwaves_183B.trace.gz
gunzip: can't stat: /Volumes/HFS+/project/champsim/ChampSim-master/CRC2_trace/bwaves_183B.trace.gz (/Volumes/HFS+/project/champsim/ChampSim-master/CRC2_trace/bwaves_183B.trace.gz.gz): No such file or directory
*** Reached end of trace for Core: 0 Repeating trace: /Volumes/HFS+/project/champsim/ChampSim-master/CRC2_trace/bwaves_183B.trace.gz
gunzip: can't stat: /Volumes/HFS+/project/champsim/ChampSim-master/CRC2_trace/bwaves_183B.trace.gz (/Volumes/HFS+/project/champsim/ChampSim-master/CRC2_trace/bwaves_183B.trace.gz.gz): No such file or directory
*** Reached end of trace for Core: 0 Repeating trace: /Volumes/HFS+/project/champsim/ChampSim-master/CRC2_trace/bwaves_183B.trace.gz
gunzip: can't stat: /Volumes/HFS+/project/champsim/ChampSim-master/CRC2_trace/bwaves_183B.trace.gz (/Volumes/HFS+/project/champsim/ChampSim-master/CRC2_trace/bwaves_183B.trace.gz.gz): No such file or directory
*** Reached end of trace for Core: 0 Repeating trace: /Volumes/HFS+/project/champsim/ChampSim-master/CRC2_trace/bwaves_183B.trace.gz
gunzip: can't stat: /Volumes/HFS+/project/champsim/ChampSim-master/CRC2_trace/bwaves_183B.trace.gz (/Volumes/HFS+/project/champsim/ChampSim-master/CRC2_trace/bwaves_183B.trace.gz.gz): No such file or directory
*** Reached end of trace for Core: 0 Repeating trace: /Volumes/HFS+/project/champsim/ChampSim-master/CRC2_trace/bwaves_183B.trace.gz
gunzip: can't stat: /Volumes/HFS+/project/champsim/ChampSim-master/CRC2_trace/bwaves_183B.trace.gz (/Volumes/HFS+/project/champsim/ChampSim-master/CRC2_trace/bwaves_183B.trace.gz.gz): No such file or directory
*** Reached end of trace for Core: 0 Repeating trace: /Volumes/HFS+/project/champsim/ChampSim-master/CRC2_trace/bwaves_183B.trace.gz
gunzip: can't stat: /Volumes/HFS+/project/champsim/ChampSim-master/CRC2_trace/bwaves_183B.trace.gz (/Volumes/HFS+/project/champsim/ChampSim-master/CRC2_trace/bwaves_183B.trace.gz.gz): No such file or directory
*** Reached end of trace for Core: 0 Repeating trace: /Volumes/HFS+/project/champsim/ChampSim-master/CRC2_trace/bwaves_183B.trace.gz
gunzip: can't stat: /Volumes/HFS+/project/champsim/ChampSim-master/CRC2_trace/bwaves_183B.trace.gz (/Volumes/HFS+/project/champsim/ChampSim-master/CRC2_trace/bwaves_183B.trace.gz.gz): No such file or directory
*** Reached end of trace for Core: 0 Repeating trace: /Volumes/HFS+/project/champsim/ChampSim-master/CRC2_trace/bwaves_183B.trace.gz
gunzip: can't stat: /Volumes/HFS+/project/champsim/ChampSim-master/CRC2_trace/bwaves_183B.trace.gz (/Volumes/HFS+/project/champsim/ChampSim-master/CRC2_trace/bwaves_183B.trace.gz.gz): No such file or directory
*** Reached end of trace for Core: 0 Repeating trace: /Volumes/HFS+/project/champsim/ChampSim-master/CRC2_trace/bwaves_183B.trace.gz
gunzip: can't stat: /Volumes/HFS+/project/champsim/ChampSim-master/CRC2_trace/bwaves_183B.trace.gz (/Volumes/HFS+/project/champsim/ChampSim-master/CRC2_trace/bwaves_183B.trace.gz.gz): No such file or directory
*** Reached end of trace for Core: 0 Repeating trace: /Volumes/HFS+/project/champsim/ChampSim-master/CRC2_trace/bwaves_183B.trace.gz
gunzip: can't stat: /Volumes/HFS+/project/champsim/ChampSim-master/CRC2_trace/bwaves_183B.trace.gz (/Volumes/HFS+/project/champsim/ChampSim-master/CRC2_trace/bwaves_183B.trace.gz.gz): No such file or directory
*** Reached end of trace for Core: 0 Repeating trace: /Volumes/HFS+/project/champsim/ChampSim-master/CRC2_trace/bwaves_183B.trace.gz
gunzip: can't stat: /Volumes/HFS+/project/champsim/ChampSim-master/CRC2_trace/bwaves_183B.trace.gz (/Volumes/HFS+/project/champsim/ChampSim-master/CRC2_trace/bwaves_183B.trace.gz.gz): No such file or directory
*** Reached end of trace for Core: 0 Repeating trace: /Volumes/HFS+/project/champsim/ChampSim-master/CRC2_trace/bwaves_183B.trace.gz
gunzip: can't stat: /Volumes/HFS+/project/champsim/ChampSim-master/CRC2_trace/bwaves_183B.trace.gz (/Volumes/HFS+/project/champsim/ChampSim-master/CRC2_trace/bwaves_183B.trace.gz.gz): No such file or directory
*** Reached end of trace for Core: 0 Repeating trace: /Volumes/HFS+/project/champsim/ChampSim-master/CRC2_trace/bwaves_183B.trace.gz
gunzip: can't stat: /Volumes/HFS+/project/champsim/ChampSim-master/CRC2_trace/bwaves_183B.trace.gz (/Volumes/HFS+/project/champsim/ChampSim-master/CRC2_trace/bwaves_183B.trace.gz.gz): No such file or directory
*** Reached end of trace for Core: 0 Repeating trace: /Volumes/HFS+/project/champsim/ChampSim-master/CRC2_trace/bwaves_183B.trace.gz
gunzip: can't stat: /Volumes/HFS+/project/champsim/ChampSim-master/CRC2_trace/bwaves_183B.trace.gz (/Volumes/HFS+/project/champsim/ChampSim-master/CRC2_trace/bwaves_183B.trace.gz.gz): No such file or directory
*** Reached end of trace for Core: 0 Repeating trace: /Volumes/HFS+/project/champsim/ChampSim-master/CRC2_trace/bwaves_183B.trace.gz
gunzip: can't stat: /Volumes/HFS+/project/champsim/ChampSim-master/CRC2_trace/bwaves_183B.trace.gz (/Volumes/HFS+/project/champsim/ChampSim-master/CRC2_trace/bwaves_183B.trace.gz.gz): No such file or directory
*** Reached end of trace for Core: 0 Repeating trace: /Volumes/HFS+/project/champsim/ChampSim-master/CRC2_trace/bwaves_183B.trace.gz
gunzip: can't stat: /Volumes/HFS+/project/champsim/ChampSim-master/CRC2_trace/bwaves_183B.trace.gz (/Volumes/HFS+/project/champsim/ChampSim-master/CRC2_trace/bwaves_183B.trace.gz.gz): No such file or directory
*** Reached end of trace for Core: 0 Repeating trace: /Volumes/HFS+/project/champsim/ChampSim-master/CRC2_trace/bwaves_183B.trace.gz
gunzip: can't stat: /Volumes/HFS+/project/champsim/ChampSim-master/CRC2_trace/bwaves_183B.trace.gz (/Volumes/HFS+/project/champsim/ChampSim-master/CRC2_trace/bwaves_183B.trace.gz.gz): No such file or directory
*** Reached end of trace for Core: 0 Repeating trace: /Volumes/HFS+/project/champsim/ChampSim-master/CRC2_trace/bwaves_183B.trace.gz
gunzip: can't stat: /Volumes/HFS+/project/champsim/ChampSim-master/CRC2_trace/bwaves_183B.trace.gz (/Volumes/HFS+/project/champsim/ChampSim-master/CRC2_trace/bwaves_183B.trace.gz.gz): No such file or directory
*** Reached end of trace for Core: 0 Repeating trace: /Volumes/HFS+/project/champsim/ChampSim-master/CRC2_trace/bwaves_183B.trace.gz
gunzip: can't stat: /Volumes/HFS+/project/champsim/ChampSim-master/CRC2_trace/bwaves_183B.trace.gz (/Volumes/HFS+/project/champsim/ChampSim-master/CRC2_trace/bwaves_183B.trace.gz.gz): No such file or directory
*** Reached end of trace for Core: 0 Repeating trace: /Volumes/HFS+/project/champsim/ChampSim-master/CRC2_trace/bwaves_183B.trace.gz
gunzip: can't stat: /Volumes/HFS+/project/champsim/ChampSim-master/CRC2_trace/bwaves_183B.trace.gz (/Volumes/HFS+/project/champsim/ChampSim-master/CRC2_trace/bwaves_183B.trace.gz.gz): No such file or directory
*** Reached end of trace for Core: 0 Repeating trace: /Volumes/HFS+/project/champsim/ChampSim-master/CRC2_trace/bwaves_183B.trace.gz
gunzip: can't stat: /Volumes/HFS+/project/champsim/ChampSim-master/CRC2_trace/bwaves_183B.trace.gz (/Volumes/HFS+/project/champsim/ChampSim-master/CRC2_trace/bwaves_183B.trace.gz.gz): No such file or directory
*** Reached end of trace for Core: 0 Repeating trace: /Volumes/HFS+/project/champsim/ChampSim-master/CRC2_trace/bwaves_183B.trace.gz
gunzip: can't stat: /Volumes/HFS+/project/champsim/ChampSim-master/CRC2_trace/bwaves_183B.trace.gz (/Volumes/HFS+/project/champsim/ChampSim-master/CRC2_trace/bwaves_183B.trace.gz.gz): No such file or directory
*** Reached end of trace for Core: 0 Repeating trace: /Volumes/HFS+/project/champsim/ChampSim-master/CRC2_trace/bwaves_183B.trace.gz
gunzip: can't stat: /Volumes/HFS+/project/champsim/ChampSim-master/CRC2_trace/bwaves_183B.trace.gz (/Volumes/HFS+/project/champsim/ChampSim-master/CRC2_trace/bwaves_183B.trace.gz.gz): No such file or directory
*** Reached end of trace for Core: 0 Repeating trace: /Volumes/HFS+/project/champsim/ChampSim-master/CRC2_trace/bwaves_183B.trace.gz
gunzip: can't stat: /Volumes/HFS+/project/champsim/ChampSim-master/CRC2_trace/bwaves_183B.trace.gz (/Volumes/HFS+/project/champsim/ChampSim-master/CRC2_trace/bwaves_183B.trace.gz.gz): No such file or directory
*** Reached end of trace for Core: 0 Repeating trace: /Volumes/HFS+/project/champsim/ChampSim-master/CRC2_trace/bwaves_183B.trace.gz
gunzip: can't stat: /Volumes/HFS+/project/champsim/ChampSim-master/CRC2_trace/bwaves_183B.trace.gz (/Volumes/HFS+/project/champsim/ChampSim-master/CRC2_trace/bwaves_183B.trace.gz.gz): No such file or directory
*** Reached end of trace for Core: 0 Repeating trace: /Volumes/HFS+/project/champsim/ChampSim-master/CRC2_trace/bwaves_183B.trace.gz
gunzip: can't stat: /Volumes/HFS+/project/champsim/ChampSim-master/CRC2_trace/bwaves_183B.trace.gz (/Volumes/HFS+/project/champsim/ChampSim-master/CRC2_trace/bwaves_183B.trace.gz.gz): No such file or directory
*** Reached end of trace for Core: 0 Repeating trace: /Volumes/HFS+/project/champsim/ChampSim-master/CRC2_trace/bwaves_183B.trace.gz
gunzip: can't stat: /Volumes/HFS+/project/champsim/ChampSim-master/CRC2_trace/bwaves_183B.trace.gz (/Volumes/HFS+/project/champsim/ChampSim-master/CRC2_trace/bwaves_183B.trace.gz.gz): No such file or directory
*** Reached end of trace for Core: 0 Repeating trace: /Volumes/HFS+/project/champsim/ChampSim-master/CRC2_trace/bwaves_183B.trace.gz
gunzip: can't stat: /Volumes/HFS+/project/champsim/ChampSim-master/CRC2_trace/bwaves_183B.trace.gz (/Volumes/HFS+/project/champsim/ChampSim-master/CRC2_trace/bwaves_183B.trace.gz.gz): No such file or directory
*** Reached end of trace for Core: 0 Repeating trace: /Volumes/HFS+/project/champsim/ChampSim-master/CRC2_trace/bwaves_183B.trace.gz
gunzip: can't stat: /Volumes/HFS+/project/champsim/ChampSim-master/CRC2_trace/bwaves_183B.trace.gz (/Volumes/HFS+/project/champsim/ChampSim-master/CRC2_trace/bwaves_183B.trace.gz.gz): No such file or directory
*** Reached end of trace for Core: 0 Repeating trace: /Volumes/HFS+/project/champsim/ChampSim-master/CRC2_trace/bwaves_183B.trace.gz
gunzip: can't stat: /Volumes/HFS+/project/champsim/ChampSim-master/CRC2_trace/bwaves_183B.trace.gz (/Volumes/HFS+/project/champsim/ChampSim-master/CRC2_trace/bwaves_183B.trace.gz.gz): No such file or directory
*** Reached end of trace for Core: 0 Repeating trace: /Volumes/HFS+/project/champsim/ChampSim-master/CRC2_trace/bwaves_183B.trace.gz
gunzip: can't stat: /Volumes/HFS+/project/champsim/ChampSim-master/CRC2_trace/bwaves_183B.trace.gz (/Volumes/HFS+/project/champsim/ChampSim-master/CRC2_trace/bwaves_183B.trace.gz.gz): No such file or directory
*** Reached end of trace for Core: 0 Repeating trace: /Volumes/HFS+/project/champsim/ChampSim-master/CRC2_trace/bwaves_183B.trace.gz
gunzip: can't stat: /Volumes/HFS+/project/champsim/ChampSim-master/CRC2_trace/bwaves_183B.trace.gz (/Volumes/HFS+/project/champsim/ChampSim-master/CRC2_trace/bwaves_183B.trace.gz.gz): No such file or directory
*** Reached end of trace for Core: 0 Repeating trace: /Volumes/HFS+/project/champsim/ChampSim-master/CRC2_trace/bwaves_183B.trace.gz
gunzip: can't stat: /Volumes/HFS+/project/champsim/ChampSim-master/CRC2_trace/bwaves_183B.trace.gz (/Volumes/HFS+/project/champsim/ChampSim-master/CRC2_trace/bwaves_183B.trace.gz.gz): No such file or directory
*** Reached end of trace for Core: 0 Repeating trace: /Volumes/HFS+/project/champsim/ChampSim-master/CRC2_trace/bwaves_183B.trace.gz
gunzip: can't stat: /Volumes/HFS+/project/champsim/ChampSim-master/CRC2_trace/bwaves_183B.trace.gz (/Volumes/HFS+/project/champsim/ChampSim-master/CRC2_trace/bwaves_183B.trace.gz.gz): No such file or directory
*** Reached end of trace for Core: 0 Repeating trace: /Volumes/HFS+/project/champsim/ChampSim-master/CRC2_trace/bwaves_183B.trace.gz
gunzip: can't stat: /Volumes/HFS+/project/champsim/ChampSim-master/CRC2_trace/bwaves_183B.trace.gz (/Volumes/HFS+/project/champsim/ChampSim-master/CRC2_trace/bwaves_183B.trace.gz.gz): No such file or directory
*** Reached end of trace for Core: 0 Repeating trace: /Volumes/HFS+/project/champsim/ChampSim-master/CRC2_trace/bwaves_183B.trace.gz
gunzip: can't stat: /Volumes/HFS+/project/champsim/ChampSim-master/CRC2_trace/bwaves_183B.trace.gz (/Volumes/HFS+/project/champsim/ChampSim-master/CRC2_trace/bwaves_183B.trace.gz.gz): No such file or directory
*** Reached end of trace for Core: 0 Repeating trace: /Volumes/HFS+/project/champsim/ChampSim-master/CRC2_trace/bwaves_183B.trace.gz
gunzip: can't stat: /Volumes/HFS+/project/champsim/ChampSim-master/CRC2_trace/bwaves_183B.trace.gz (/Volumes/HFS+/project/champsim/ChampSim-master/CRC2_trace/bwaves_183B.trace.gz.gz): No such file or directory
*** Reached end of trace for Core: 0 Repeating trace: /Volumes/HFS+/project/champsim/ChampSim-master/CRC2_trace/bwaves_183B.trace.gz
gunzip: can't stat: /Volumes/HFS+/project/champsim/ChampSim-master/CRC2_trace/bwaves_183B.trace.gz (/Volumes/HFS+/project/champsim/ChampSim-master/CRC2_trace/bwaves_183B.trace.gz.gz): No such file or directory
*** Reached end of trace for Core: 0 Repeating trace: /Volumes/HFS+/project/champsim/ChampSim-master/CRC2_trace/bwaves_183B.trace.gz
gunzip: can't stat: /Volumes/HFS+/project/champsim/ChampSim-master/CRC2_trace/bwaves_183B.trace.gz (/Volumes/HFS+/project/champsim/ChampSim-master/CRC2_trace/bwaves_183B.trace.gz.gz): No such file or directory
*** Reached end of trace for Core: 0 Repeating trace: /Volumes/HFS+/project/champsim/ChampSim-master/CRC2_trace/bwaves_183B.trace.gz
gunzip: can't stat: /Volumes/HFS+/project/champsim/ChampSim-master/CRC2_trace/bwaves_183B.trace.gz (/Volumes/HFS+/project/champsim/ChampSim-master/CRC2_trace/bwaves_183B.trace.gz.gz): No such file or directory
*** Reached end of trace for Core: 0 Repeating trace: /Volumes/HFS+/project/champsim/ChampSim-master/CRC2_trace/bwaves_183B.trace.gz
gunzip: can't stat: /Volumes/HFS+/project/champsim/ChampSim-master/CRC2_trace/bwaves_183B.trace.gz (/Volumes/HFS+/project/champsim/ChampSim-master/CRC2_trace/bwaves_183B.trace.gz.gz): No such file or directory
*** Reached end of trace for Core: 0 Repeating trace: /Volumes/HFS+/project/champsim/ChampSim-master/CRC2_trace/bwaves_183B.trace.gz
gunzip: can't stat: /Volumes/HFS+/project/champsim/ChampSim-master/CRC2_trace/bwaves_183B.trace.gz (/Volumes/HFS+/project/champsim/ChampSim-master/CRC2_trace/bwaves_183B.trace.gz.gz): No such file or directory
*** Reached end of trace for Core: 0 Repeating trace: /Volumes/HFS+/project/champsim/ChampSim-master/CRC2_trace/bwaves_183B.trace.gz
gunzip: can't stat: /Volumes/HFS+/project/champsim/ChampSim-master/CRC2_trace/bwaves_183B.trace.gz (/Volumes/HFS+/project/champsim/ChampSim-master/CRC2_trace/bwaves_183B.trace.gz.gz): No such file or directory
*** Reached end of trace for Core: 0 Repeating trace: /Volumes/HFS+/project/champsim/ChampSim-master/CRC2_trace/bwaves_183B.trace.gz
gunzip: can't stat: /Volumes/HFS+/project/champsim/ChampSim-master/CRC2_trace/bwaves_183B.trace.gz (/Volumes/HFS+/project/champsim/ChampSim-master/CRC2_trace/bwaves_183B.trace.gz.gz): No such file or directory
*** Reached end of trace for Core: 0 Repeating trace: /Volumes/HFS+/project/champsim/ChampSim-master/CRC2_trace/bwaves_183B.trace.gz
gunzip: can't stat: /Volumes/HFS+/project/champsim/ChampSim-master/CRC2_trace/bwaves_183B.trace.gz (/Volumes/HFS+/project/champsim/ChampSim-master/CRC2_trace/bwaves_183B.trace.gz.gz): No such file or directory
*** Reached end of trace for Core: 0 Repeating trace: /Volumes/HFS+/project/champsim/ChampSim-master/CRC2_trace/bwaves_183B.trace.gz
gunzip: can't stat: /Volumes/HFS+/project/champsim/ChampSim-master/CRC2_trace/bwaves_183B.trace.gz (/Volumes/HFS+/project/champsim/ChampSim-master/CRC2_trace/bwaves_183B.trace.gz.gz): No such file or directory
*** Reached end of trace for Core: 0 Repeating trace: /Volumes/HFS+/project/champsim/ChampSim-master/CRC2_trace/bwaves_183B.trace.gz
gunzip: can't stat: /Volumes/HFS+/project/champsim/ChampSim-master/CRC2_trace/bwaves_183B.trace.gz (/Volumes/HFS+/project/champsim/ChampSim-master/CRC2_trace/bwaves_183B.trace.gz.gz): No such file or directory
*** Reached end of trace for Core: 0 Repeating trace: /Volumes/HFS+/project/champsim/ChampSim-master/CRC2_trace/bwaves_183B.trace.gz
gunzip: can't stat: /Volumes/HFS+/project/champsim/ChampSim-master/CRC2_trace/bwaves_183B.trace.gz (/Volumes/HFS+/project/champsim/ChampSim-master/CRC2_trace/bwaves_183B.trace.gz.gz): No such file or directory
*** Reached end of trace for Core: 0 Repeating trace: /Volumes/HFS+/project/champsim/ChampSim-master/CRC2_trace/bwaves_183B.trace.gz
gunzip: can't stat: /Volumes/HFS+/project/champsim/ChampSim-master/CRC2_trace/bwaves_183B.trace.gz (/Volumes/HFS+/project/champsim/ChampSim-master/CRC2_trace/bwaves_183B.trace.gz.gz): No such file or directory
*** Reached end of trace for Core: 0 Repeating trace: /Volumes/HFS+/project/champsim/ChampSim-master/CRC2_trace/bwaves_183B.trace.gz
gunzip: can't stat: /Volumes/HFS+/project/champsim/ChampSim-master/CRC2_trace/bwaves_183B.trace.gz (/Volumes/HFS+/project/champsim/ChampSim-master/CRC2_trace/bwaves_183B.trace.gz.gz): No such file or directory
*** Reached end of trace for Core: 0 Repeating trace: /Volumes/HFS+/project/champsim/ChampSim-master/CRC2_trace/bwaves_183B.trace.gz
gunzip: can't stat: /Volumes/HFS+/project/champsim/ChampSim-master/CRC2_trace/bwaves_183B.trace.gz (/Volumes/HFS+/project/champsim/ChampSim-master/CRC2_trace/bwaves_183B.trace.gz.gz): No such file or directory
*** Reached end of trace for Core: 0 Repeating trace: /Volumes/HFS+/project/champsim/ChampSim-master/CRC2_trace/bwaves_183B.trace.gz
gunzip: can't stat: /Volumes/HFS+/project/champsim/ChampSim-master/CRC2_trace/bwaves_183B.trace.gz (/Volumes/HFS+/project/champsim/ChampSim-master/CRC2_trace/bwaves_183B.trace.gz.gz): No such file or directory
*** Reached end of trace for Core: 0 Repeating trace: /Volumes/HFS+/project/champsim/ChampSim-master/CRC2_trace/bwaves_183B.trace.gz
gunzip: can't stat: /Volumes/HFS+/project/champsim/ChampSim-master/CRC2_trace/bwaves_183B.trace.gz (/Volumes/HFS+/project/champsim/ChampSim-master/CRC2_trace/bwaves_183B.trace.gz.gz): No such file or directory
*** Reached end of trace for Core: 0 Repeating trace: /Volumes/HFS+/project/champsim/ChampSim-master/CRC2_trace/bwaves_183B.trace.gz
gunzip: can't stat: /Volumes/HFS+/project/champsim/ChampSim-master/CRC2_trace/bwaves_183B.trace.gz (/Volumes/HFS+/project/champsim/ChampSim-master/CRC2_trace/bwaves_183B.trace.gz.gz): No such file or directory
*** Reached end of trace for Core: 0 Repeating trace: /Volumes/HFS+/project/champsim/ChampSim-master/CRC2_trace/bwaves_183B.trace.gz
gunzip: can't stat: /Volumes/HFS+/project/champsim/ChampSim-master/CRC2_trace/bwaves_183B.trace.gz (/Volumes/HFS+/project/champsim/ChampSim-master/CRC2_trace/bwaves_183B.trace.gz.gz): No such file or directory
*** Reached end of trace for Core: 0 Repeating trace: /Volumes/HFS+/project/champsim/ChampSim-master/CRC2_trace/bwaves_183B.trace.gz
gunzip: can't stat: /Volumes/HFS+/project/champsim/ChampSim-master/CRC2_trace/bwaves_183B.trace.gz (/Volumes/HFS+/project/champsim/ChampSim-master/CRC2_trace/bwaves_183B.trace.gz.gz): No such file or directory
*** Reached end of trace for Core: 0 Repeating trace: /Volumes/HFS+/project/champsim/ChampSim-master/CRC2_trace/bwaves_183B.trace.gz
gunzip: can't stat: /Volumes/HFS+/project/champsim/ChampSim-master/CRC2_trace/bwaves_183B.trace.gz (/Volumes/HFS+/project/champsim/ChampSim-master/CRC2_trace/bwaves_183B.trace.gz.gz): No such file or directory
*** Reached end of trace for Core: 0 Repeating trace: /Volumes/HFS+/project/champsim/ChampSim-master/CRC2_trace/bwaves_183B.trace.gz
gunzip: can't stat: /Volumes/HFS+/project/champsim/ChampSim-master/CRC2_trace/bwaves_183B.trace.gz (/Volumes/HFS+/project/champsim/ChampSim-master/CRC2_trace/bwaves_183B.trace.gz.gz): No such file or directory
*** Reached end of trace for Core: 0 Repeating trace: /Volumes/HFS+/project/champsim/ChampSim-master/CRC2_trace/bwaves_183B.trace.gz
[...]
gunzip: can't stat: /Volumes/HFS+/project/champsim/ChampSim-master/CRC2_trace/bwaves_183B.trace.gz (/Volumes/HFS+/project/champsim/ChampSim-master/CRC2_trace/bwaves_183B.trace.gz.gz): No such file or directory
*** Reached end of trace for Core: 0 Repeating trace: /Volumes/HFS+/project/champsim/ChampSim-master/CRC2_trace/bwaves_183B.trace.gz
gunzip: can't stat: /Volumes/HFS+/project/champsim/ChampSim-master/CRC2_trace/bwaves_183B.trace.gz (/Volumes/HFS+/project/champsim/ChampSim-master/CRC2_trace/bwaves_183B.trace.gz.gz): No such file or directory
*** Reached end of trace for Core: 0 Repeating trace: /Volumes/HFS+/project/champsim/ChampSim-master/CRC2_trace/bwaves_183B.trace.gz
gunzip: can't stat: /Volumes/HFS+/project/champsim/ChampSim-master/CRC2_trace/bwaves_183B.trace.gz (/Volumes/HFS+/project/champsim/ChampSim-master/CRC2_trace/bwaves_183B.trace.gz.gz): No such file or directory
*** Reached end of trace for Core: 0 Repeating trace: /Volumes/HFS+/project/champsim/ChampSim-master/CRC2_trace/bwaves_183B.trace.gz
gunzip: can't stat: /Volumes/HFS+/project/champsim/ChampSim-master/CRC2_trace/bwaves_183B.trace.gz (/Volumes/HFS+/project/champsim/ChampSim-master/CRC2_trace/bwaves_183B.trace.gz.gz): No such file or directory
*** Reached end of trace for Core: 0 Repeating trace: /Volumes/HFS+/project/champsim/ChampSim-master/CRC2_trace/bwaves_183B.trace.gz
gunzip: can't stat: /Volumes/HFS+/project/champsim/ChampSim-master/CRC2_trace/bwaves_183B.trace.gz (/Volumes/HFS+/project/champsim/ChampSim-master/CRC2_trace/bwaves_183B.trace.gz.gz): No such file or directory
*** Reached end of trace for Core: 0 Repeating trace: /Volumes/HFS+/project/champsim/ChampSim-master/CRC2_trace/bwaves_183B.trace.gz
gunzip: can't stat: /Volumes/HFS+/project/champsim/ChampSim-master/CRC2_trace/bwaves_183B.trace.gz (/Volumes/HFS+/project/champsim/ChampSim-master/CRC2_trace/bwaves_183B.trace.gz.gz): No such file or directory
*** Reached end of trace for Core: 0 Repeating trace: /Volumes/HFS+/project/champsim/ChampSim-master/CRC2_trace/bwaves_183B.trace.gz
gunzip: can't stat: /Volumes/HFS+/project/champsim/ChampSim-master/CRC2_trace/bwaves_183B.trace.gz (/Volumes/HFS+/project/champsim/ChampSim-master/CRC2_trace/bwaves_183B.trace.gz.gz): No such file or directory
*** Reached end of trace for Core: 0 Repeating trace: /Volumes/HFS+/project/champsim/ChampSim-master/CRC2_trace/bwaves_183B.trace.gz
gunzip: can't stat: /Volumes/HFS+/project/champsim/ChampSim-master/CRC2_trace/bwaves_183B.trace.gz (/Volumes/HFS+/project/champsim/ChampSim-master/CRC2_trace/bwaves_183B.trace.gz.gz): No such file or directory
*** Reached end of trace for Core: 0 Repeating trace: /Volumes/HFS+/project/champsim/ChampSim-master/CRC2_trace/bwaves_183B.trace.gz
gunzip: can't stat: /Volumes/HFS+/project/champsim/ChampSim-master/CRC2_trace/bwaves_183B.trace.gz (/Volumes/HFS+/project/champsim/ChampSim-master/CRC2_trace/bwaves_183B.trace.gz.gz): No such file or directory
*** Reached end of trace for Core: 0 Repeating trace: /Volumes/HFS+/project/champsim/ChampSim-master/CRC2_trace/bwaves_183B.trace.gz
gunzip: can't stat: /Volumes/HFS+/project/champsim/ChampSim-master/CRC2_trace/bwaves_183B.trace.gz (/Volumes/HFS+/project/champsim/ChampSim-master/CRC2_trace/bwaves_183B.trace.gz.gz): No such file or directory
*** Reached end of trace for Core: 0 Repeating trace: /Volumes/HFS+/project/champsim/ChampSim-master/CRC2_trace/bwaves_183B.trace.gz
gunzip: can't stat: /Volumes/HFS+/project/champsim/ChampSim-master/CRC2_trace/bwaves_183B.trace.gz (/Volumes/HFS+/project/champsim/ChampSim-master/CRC2_trace/bwaves_183B.trace.gz.gz): No such file or directory
*** Reached end of trace for Core: 0 Repeating trace: /Volumes/HFS+/project/champsim/ChampSim-master/CRC2_trace/bwaves_183B.trace.gz
gunzip: can't stat: /Volumes/HFS+/project/champsim/ChampSim-master/CRC2_trace/bwaves_183B.trace.gz (/Volumes/HFS+/project/champsim/ChampSim-master/CRC2_trace/bwaves_183B.trace.gz.gz): No such file or directory
*** Reached end of trace for Core: 0 Repeating trace: /Volumes/HFS+/project/champsim/ChampSim-master/CRC2_trace/bwaves_183B.trace.gz
gunzip: can't stat: /Volumes/HFS+/project/champsim/ChampSim-master/CRC2_trace/bwaves_183B.trace.gz (/Volumes/HFS+/project/champsim/ChampSim-master/CRC2_trace/bwaves_183B.trace.gz.gz): No such file or directory
*** Reached end of trace for Core: 0 Repeating trace: /Volumes/HFS+/project/champsim/ChampSim-master/CRC2_trace/bwaves_183B.trace.gz
gunzip: can't stat: /Volumes/HFS+/project/champsim/ChampSim-master/CRC2_trace/bwaves_183B.trace.gz (/Volumes/HFS+/project/champsim/ChampSim-master/CRC2_trace/bwaves_183B.trace.gz.gz): No such file or directory
*** Reached end of trace for Core: 0 Repeating trace: /Volumes/HFS+/project/champsim/ChampSim-master/CRC2_trace/bwaves_183B.trace.gz
gunzip: can't stat: /Volumes/HFS+/project/champsim/ChampSim-master/CRC2_trace/bwaves_183B.trace.gz (/Volumes/HFS+/project/champsim/ChampSim-master/CRC2_trace/bwaves_183B.trace.gz.gz): No such file or directory
*** Reached end of trace for Core: 0 Repeating trace: /Volumes/HFS+/project/champsim/ChampSim-master/CRC2_trace/bwaves_183B.trace.gz
gunzip: can't stat: /Volumes/HFS+/project/champsim/ChampSim-master/CRC2_trace/bwaves_183B.trace.gz (/Volumes/HFS+/project/champsim/ChampSim-master/CRC2_trace/bwaves_183B.trace.gz.gz): No such file or directory
*** Reached end of trace for Core: 0 Repeating trace: /Volumes/HFS+/project/champsim/ChampSim-master/CRC2_trace/bwaves_183B.trace.gz
gunzip: can't stat: /Volumes/HFS+/project/champsim/ChampSim-master/CRC2_trace/bwaves_183B.trace.gz (/Volumes/HFS+/project/champsim/ChampSim-master/CRC2_trace/bwaves_183B.trace.gz.gz): No such file or directory
*** Reached end of trace for Core: 0 Repeating trace: /Volumes/HFS+/project/champsim/ChampSim-master/CRC2_trace/bwaves_183B.trace.gz
gunzip: can't stat: /Volumes/HFS+/project/champsim/ChampSim-master/CRC2_trace/bwaves_183B.trace.gz (/Volumes/HFS+/project/champsim/ChampSim-master/CRC2_trace/bwaves_183B.trace.gz.gz): No such file or directory
*** Reached end of trace for Core: 0 Repeating trace: /Volumes/HFS+/project/champsim/ChampSim-master/CRC2_trace/bwaves_183B.trace.gz
gunzip: can't stat: /Volumes/HFS+/project/champsim/ChampSim-master/CRC2_trace/bwaves_183B.trace.gz (/Volumes/HFS+/project/champsim/ChampSim-master/CRC2_trace/bwaves_183B.trace.gz.gz): No such file or directory
*** Reached end of trace for Core: 0 Repeating trace: /Volumes/HFS+/project/champsim/ChampSim-master/CRC2_trace/bwaves_183B.trace.gz
gunzip: can't stat: /Volumes/HFS+/project/champsim/ChampSim-master/CRC2_trace/bwaves_183B.trace.gz (/Volumes/HFS+/project/champsim/ChampSim-master/CRC2_trace/bwaves_183B.trace.gz.gz): No such file or directory
*** Reached end of trace for Core: 0 Repeating trace: /Volumes/HFS+/project/champsim/ChampSim-master/CRC2_trace/bwaves_183B.trace.gz
gunzip: can't stat: /Volumes/HFS+/project/champsim/ChampSim-master/CRC2_trace/bwaves_183B.trace.gz (/Volumes/HFS+/project/champsim/ChampSim-master/CRC2_trace/bwaves_183B.trace.gz.gz): No such file or directory
*** Reached end of trace for Core: 0 Repeating trace: /Volumes/HFS+/project/champsim/ChampSim-master/CRC2_trace/bwaves_183B.trace.gz
gunzip: can't stat: /Volumes/HFS+/project/champsim/ChampSim-master/CRC2_trace/bwaves_183B.trace.gz (/Volumes/HFS+/project/champsim/ChampSim-master/CRC2_trace/bwaves_183B.trace.gz.gz): No such file or directory
*** Reached end of trace for Core: 0 Repeating trace: /Volumes/HFS+/project/champsim/ChampSim-master/CRC2_trace/bwaves_183B.trace.gz
gunzip: can't stat: /Volumes/HFS+/project/champsim/ChampSim-master/CRC2_trace/bwaves_183B.trace.gz (/Volumes/HFS+/project/champsim/ChampSim-master/CRC2_trace/bwaves_183B.trace.gz.gz): No such file or directory
*** Reached end of trace for Core: 0 Repeating trace: /Volumes/HFS+/project/champsim/ChampSim-master/CRC2_trace/bwaves_183B.trace.gz
gunzip: can't stat: /Volumes/HFS+/project/champsim/ChampSim-master/CRC2_trace/bwaves_183B.trace.gz (/Volumes/HFS+/project/champsim/ChampSim-master/CRC2_trace/bwaves_183B.trace.gz.gz): No such file or directory
*** Reached end of trace for Core: 0 Repeating trace: /Volumes/HFS+/project/champsim/ChampSim-master/CRC2_trace/bwaves_183B.trace.gz
gunzip: can't stat: /Volumes/HFS+/project/champsim/ChampSim-master/CRC2_trace/bwaves_183B.trace.gz (/Volumes/HFS+/project/champsim/ChampSim-master/CRC2_trace/bwaves_183B.trace.gz.gz): No such file or directory
*** Reached end of trace for Core: 0 Repeating trace: /Volumes/HFS+/project/champsim/ChampSim-master/CRC2_trace/bwaves_183B.trace.gz
gunzip: can't stat: /Volumes/HFS+/project/champsim/ChampSim-master/CRC2_trace/bwaves_183B.trace.gz (/Volumes/HFS+/project/champsim/ChampSim-master/CRC2_trace/bwaves_183B.trace.gz.gz): No such file or directory
*** Reached end of trace for Core: 0 Repeating trace: /Volumes/HFS+/project/champsim/ChampSim-master/CRC2_trace/bwaves_183B.trace.gz
gunzip: can't stat: /Volumes/HFS+/project/champsim/ChampSim-master/CRC2_trace/bwaves_183B.trace.gz (/Volumes/HFS+/project/champsim/ChampSim-master/CRC2_trace/bwaves_183B.trace.gz.gz): No such file or directory
*** Reached end of trace for Core: 0 Repeating trace: /Volumes/HFS+/project/champsim/ChampSim-master/CRC2_trace/bwaves_183B.trace.gz
gunzip: can't stat: /Volumes/HFS+/project/champsim/ChampSim-master/CRC2_trace/bwaves_183B.trace.gz (/Volumes/HFS+/project/champsim/ChampSim-master/CRC2_trace/bwaves_183B.trace.gz.gz): No such file or directory
*** Reached end of trace for Core: 0 Repeating trace: /Volumes/HFS+/project/champsim/ChampSim-master/CRC2_trace/bwaves_183B.trace.gz
gunzip: can't stat: /Volumes/HFS+/project/champsim/ChampSim-master/CRC2_trace/bwaves_183B.trace.gz (/Volumes/HFS+/project/champsim/ChampSim-master/CRC2_trace/bwaves_183B.trace.gz.gz): No such file or directory
*** Reached end of trace for Core: 0 Repeating trace: /Volumes/HFS+/project/champsim/ChampSim-master/CRC2_trace/bwaves_183B.trace.gz
gunzip: can't stat: /Volumes/HFS+/project/champsim/ChampSim-master/CRC2_trace/bwaves_183B.trace.gz (/Volumes/HFS+/project/champsim/ChampSim-master/CRC2_trace/bwaves_183B.trace.gz.gz): No such file or directory
*** Reached end of trace for Core: 0 Repeating trace: /Volumes/HFS+/project/champsim/ChampSim-master/CRC2_trace/bwaves_183B.trace.gz
gunzip: can't stat: /Volumes/HFS+/project/champsim/ChampSim-master/CRC2_trace/bwaves_183B.trace.gz (/Volumes/HFS+/project/champsim/ChampSim-master/CRC2_trace/bwaves_183B.trace.gz.gz): No such file or directory
*** Reached end of trace for Core: 0 Repeating trace: /Volumes/HFS+/project/champsim/ChampSim-master/CRC2_trace/bwaves_183B.trace.gz
gunzip: can't stat: /Volumes/HFS+/project/champsim/ChampSim-master/CRC2_trace/bwaves_183B.trace.gz (/Volumes/HFS+/project/champsim/ChampSim-master/CRC2_trace/bwaves_183B.trace.gz.gz): No such file or directory
*** Reached end of trace for Core: 0 Repeating trace: /Volumes/HFS+/project/champsim/ChampSim-master/CRC2_trace/bwaves_183B.trace.gz
gunzip: can't stat: /Volumes/HFS+/project/champsim/ChampSim-master/CRC2_trace/bwaves_183B.trace.gz (/Volumes/HFS+/project/champsim/ChampSim-master/CRC2_trace/bwaves_183B.trace.gz.gz): No such file or directory
*** Reached end of trace for Core: 0 Repeating trace: /Volumes/HFS+/project/champsim/ChampSim-master/CRC2_trace/bwaves_183B.trace.gz
gunzip: can't stat: /Volumes/HFS+/project/champsim/ChampSim-master/CRC2_trace/bwaves_183B.trace.gz (/Volumes/HFS+/project/champsim/ChampSim-master/CRC2_trace/bwaves_183B.trace.gz.gz): No such file or directory
*** Reached end of trace for Core: 0 Repeating trace: /Volumes/HFS+/project/champsim/ChampSim-master/CRC2_trace/bwaves_183B.trace.gz
gunzip: can't stat: /Volumes/HFS+/project/champsim/ChampSim-master/CRC2_trace/bwaves_183B.trace.gz (/Volumes/HFS+/project/champsim/ChampSim-master/CRC2_trace/bwaves_183B.trace.gz.gz): No such file or directory
*** Reached end of trace for Core: 0 Repeating trace: /Volumes/HFS+/project/champsim/ChampSim-master/CRC2_trace/bwaves_183B.trace.gz
gunzip: can't stat: /Volumes/HFS+/project/champsim/ChampSim-master/CRC2_trace/bwaves_183B.trace.gz (/Volumes/HFS+/project/champsim/ChampSim-master/CRC2_trace/bwaves_183B.trace.gz.gz): No such file or directory
*** Reached end of trace for Core: 0 Repeating trace: /Volumes/HFS+/project/champsim/ChampSim-master/CRC2_trace/bwaves_183B.trace.gz
gunzip: can't stat: /Volumes/HFS+/project/champsim/ChampSim-master/CRC2_trace/bwaves_183B.trace.gz (/Volumes/HFS+/project/champsim/ChampSim-master/CRC2_trace/bwaves_183B.trace.gz.gz): No such file or directory
*** Reached end of trace for Core: 0 Repeating trace: /Volumes/HFS+/project/champsim/ChampSim-master/CRC2_trace/bwaves_183B.trace.gz
gunzip: can't stat: /Volumes/HFS+/project/champsim/ChampSim-master/CRC2_trace/bwaves_183B.trace.gz (/Volumes/HFS+/project/champsim/ChampSim-master/CRC2_trace/bwaves_183B.trace.gz.gz): No such file or directory
*** Reached end of trace for Core: 0 Repeating trace: /Volumes/HFS+/project/champsim/ChampSim-master/CRC2_trace/bwaves_183B.trace.gz
gunzip: can't stat: /Volumes/HFS+/project/champsim/ChampSim-master/CRC2_trace/bwaves_183B.trace.gz (/Volumes/HFS+/project/champsim/ChampSim-master/CRC2_trace/bwaves_183B.trace.gz.gz): No such file or directory
*** Reached end of trace for Core: 0 Repeating trace: /Volumes/HFS+/project/champsim/ChampSim-master/CRC2_trace/bwaves_183B.trace.gz
gunzip: can't stat: /Volumes/HFS+/project/champsim/ChampSim-master/CRC2_trace/bwaves_183B.trace.gz (/Volumes/HFS+/project/champsim/ChampSim-master/CRC2_trace/bwaves_183B.trace.gz.gz): No such file or directory
*** Reached end of trace for Core: 0 Repeating trace: /Volumes/HFS+/project/champsim/ChampSim-master/CRC2_trace/bwaves_183B.trace.gz
gunzip: can't stat: /Volumes/HFS+/project/champsim/ChampSim-master/CRC2_trace/bwaves_183B.trace.gz (/Volumes/HFS+/project/champsim/ChampSim-master/CRC2_trace/bwaves_183B.trace.gz.gz): No such file or directory
*** Reached end of trace for Core: 0 Repeating trace: /Volumes/HFS+/project/champsim/ChampSim-master/CRC2_trace/bwaves_183B.trace.gz
gunzip: can't stat: /Volumes/HFS+/project/champsim/ChampSim-master/CRC2_trace/bwaves_183B.trace.gz (/Volumes/HFS+/project/champsim/ChampSim-master/CRC2_trace/bwaves_183B.trace.gz.gz): No such file or directory
*** Reached end of trace for Core: 0 Repeating trace: /Volumes/HFS+/project/champsim/ChampSim-master/CRC2_trace/bwaves_183B.trace.gz
gunzip: can't stat: /Volumes/HFS+/project/champsim/ChampSim-master/CRC2_trace/bwaves_183B.trace.gz (/Volumes/HFS+/project/champsim/ChampSim-master/CRC2_trace/bwaves_183B.trace.gz.gz): No such file or directory
*** Reached end of trace for Core: 0 Repeating trace: /Volumes/HFS+/project/champsim/ChampSim-master/CRC2_trace/bwaves_183B.trace.gz
gunzip: can't stat: /Volumes/HFS+/project/champsim/ChampSim-master/CRC2_trace/bwaves_183B.trace.gz (/Volumes/HFS+/project/champsim/ChampSim-master/CRC2_trace/bwaves_183B.trace.gz.gz): No such file or directory
*** Reached end of trace for Core: 0 Repeating trace: /Volumes/HFS+/project/champsim/ChampSim-master/CRC2_trace/bwaves_183B.trace.gz
gunzip: can't stat: /Volumes/HFS+/project/champsim/ChampSim-master/CRC2_trace/bwaves_183B.trace.gz (/Volumes/HFS+/project/champsim/ChampSim-master/CRC2_trace/bwaves_183B.trace.gz.gz): No such file or directory
*** Reached end of trace for Core: 0 Repeating trace: /Volumes/HFS+/project/champsim/ChampSim-master/CRC2_trace/bwaves_183B.trace.gz
gunzip: can't stat: /Volumes/HFS+/project/champsim/ChampSim-master/CRC2_trace/bwaves_183B.trace.gz (/Volumes/HFS+/project/champsim/ChampSim-master/CRC2_trace/bwaves_183B.trace.gz.gz): No such file or directory
*** Reached end of trace for Core: 0 Repeating trace: /Volumes/HFS+/project/champsim/ChampSim-master/CRC2_trace/bwaves_183B.trace.gz
gunzip: can't stat: /Volumes/HFS+/project/champsim/ChampSim-master/CRC2_trace/bwaves_183B.trace.gz (/Volumes/HFS+/project/champsim/ChampSim-master/CRC2_trace/bwaves_183B.trace.gz.gz): No such file or directory
*** Reached end of trace for Core: 0 Repeating trace: /Volumes/HFS+/project/champsim/ChampSim-master/CRC2_trace/bwaves_183B.trace.gz
gunzip: can't stat: /Volumes/HFS+/project/champsim/ChampSim-master/CRC2_trace/bwaves_183B.trace.gz (/Volumes/HFS+/project/champsim/ChampSim-master/CRC2_trace/bwaves_183B.trace.gz.gz): No such file or directory
*** Reached end of trace for Core: 0 Repeating trace: /Volumes/HFS+/project/champsim/ChampSim-master/CRC2_trace/bwaves_183B.trace.gz
gunzip: can't stat: /Volumes/HFS+/project/champsim/ChampSim-master/CRC2_trace/bwaves_183B.trace.gz (/Volumes/HFS+/project/champsim/ChampSim-master/CRC2_trace/bwaves_183B.trace.gz.gz): No such file or directory
*** Reached end of trace for Core: 0 Repeating trace: /Volumes/HFS+/project/champsim/ChampSim-master/CRC2_trace/bwaves_183B.trace.gz
gunzip: can't stat: /Volumes/HFS+/project/champsim/ChampSim-master/CRC2_trace/bwaves_183B.trace.gz (/Volumes/HFS+/project/champsim/ChampSim-master/CRC2_trace/bwaves_183B.trace.gz.gz): No such file or directory
*** Reached end of trace for Core: 0 Repeating trace: /Volumes/HFS+/project/champsim/ChampSim-master/CRC2_trace/bwaves_183B.trace.gz
gunzip: can't stat: /Volumes/HFS+/project/champsim/ChampSim-master/CRC2_trace/bwaves_183B.trace.gz (/Volumes/HFS+/project/champsim/ChampSim-master/CRC2_trace/bwaves_183B.trace.gz.gz): No such file or directory
*** Reached end of trace for Core: 0 Repeating trace: /Volumes/HFS+/project/champsim/ChampSim-master/CRC2_trace/bwaves_183B.trace.gz
gunzip: can't stat: /Volumes/HFS+/project/champsim/ChampSim-master/CRC2_trace/bwaves_183B.trace.gz (/Volumes/HFS+/project/champsim/ChampSim-master/CRC2_trace/bwaves_183B.trace.gz.gz): No such file or directory
*** Reached end of trace for Core: 0 Repeating trace: /Volumes/HFS+/project/champsim/ChampSim-master/CRC2_trace/bwaves_183B.trace.gz
gunzip: can't stat: /Volumes/HFS+/project/champsim/ChampSim-master/CRC2_trace/bwaves_183B.trace.gz (/Volumes/HFS+/project/champsim/ChampSim-master/CRC2_trace/bwaves_183B.trace.gz.gz): No such file or directory
*** Reached end of trace for Core: 0 Repeating trace: /Volumes/HFS+/project/champsim/ChampSim-master/CRC2_trace/bwaves_183B.trace.gz
gunzip: can't stat: /Volumes/HFS+/project/champsim/ChampSim-master/CRC2_trace/bwaves_183B.trace.gz (/Volumes/HFS+/project/champsim/ChampSim-master/CRC2_trace/bwaves_183B.trace.gz.gz): No such file or directory
*** Reached end of trace for Core: 0 Repeating trace: /Volumes/HFS+/project/champsim/ChampSim-master/CRC2_trace/bwaves_183B.trace.gz
gunzip: can't stat: /Volumes/HFS+/project/champsim/ChampSim-master/CRC2_trace/bwaves_183B.trace.gz (/Volumes/HFS+/project/champsim/ChampSim-master/CRC2_trace/bwaves_183B.trace.gz.gz): No such file or directory
*** Reached end of trace for Core: 0 Repeating trace: /Volumes/HFS+/project/champsim/ChampSim-master/CRC2_trace/bwaves_183B.trace.gz
gunzip: can't stat: /Volumes/HFS+/project/champsim/ChampSim-master/CRC2_trace/bwaves_183B.trace.gz (/Volumes/HFS+/project/champsim/ChampSim-master/CRC2_trace/bwaves_183B.trace.gz.gz): No such file or directory
*** Reached end of trace for Core: 0 Repeating trace: /Volumes/HFS+/project/champsim/ChampSim-master/CRC2_trace/bwaves_183B.trace.gz
gunzip: can't stat: /Volumes/HFS+/project/champsim/ChampSim-master/CRC2_trace/bwaves_183B.trace.gz (/Volumes/HFS+/project/champsim/ChampSim-master/CRC2_trace/bwaves_183B.trace.gz.gz): No such file or directory
*** Reached end of trace for Core: 0 Repeating trace: /Volumes/HFS+/project/champsim/ChampSim-master/CRC2_trace/bwaves_183B.trace.gz
gunzip: can't stat: /Volumes/HFS+/project/champsim/ChampSim-master/CRC2_trace/bwaves_183B.trace.gz (/Volumes/HFS+/project/champsim/ChampSim-master/CRC2_trace/bwaves_183B.trace.gz.gz): No such file or directory
*** Reached end of trace for Core: 0 Repeating trace: /Volumes/HFS+/project/champsim/ChampSim-master/CRC2_trace/bwaves_183B.trace.gz
Caught signal: 2
